.GLOBAL VDD VSS
* SPICE NETLIST
***************************************

*.CALIBRE ABORT_INFO SOFTCHK
*.CALIBRE ABORT_INFO SUPPLY_ERROR
.SUBCKT ndio_18_mac PLUS MINUS
.ENDS
***************************************
.SUBCKT ndio_mac PLUS MINUS
.ENDS
***************************************
.SUBCKT nmoscap_18 PLUS MINUS
.ENDS
***************************************
.SUBCKT npode_18_mac S G B
.ENDS
***************************************
.SUBCKT npode_lvt_mac S G B
.ENDS
***************************************
.SUBCKT npode_svt_mac S G B
.ENDS
***************************************
.SUBCKT pdio_18_mac PLUS MINUS
.ENDS
***************************************
.SUBCKT pdio_mac PLUS MINUS
.ENDS
***************************************
.SUBCKT ppode_18_mac S G B
.ENDS
***************************************
.SUBCKT ppode_lvt_mac S G B
.ENDS
***************************************
.SUBCKT ppode_svt_mac S G B
.ENDS
***************************************
.SUBCKT rhim PLUS MINUS
.ENDS
***************************************
.SUBCKT rm10w PLUS MINUS
.ENDS
***************************************
.SUBCKT rm11w PLUS MINUS
.ENDS
***************************************
.SUBCKT rm1w PLUS MINUS
.ENDS
***************************************
.SUBCKT rm2w PLUS MINUS
.ENDS
***************************************
.SUBCKT rm3w PLUS MINUS
.ENDS
***************************************
.SUBCKT rm4w PLUS MINUS
.ENDS
***************************************
.SUBCKT rm5w PLUS MINUS
.ENDS
***************************************
.SUBCKT rm6w PLUS MINUS
.ENDS
***************************************
.SUBCKT rm7w PLUS MINUS
.ENDS
***************************************
.SUBCKT rm8w PLUS MINUS
.ENDS
***************************************
.SUBCKT rm9w PLUS MINUS
.ENDS
***************************************
.SUBCKT rmap PLUS MINUS
.ENDS
***************************************
.SUBCKT ICV_1
** N=85187 EP=0 IP=0 FDC=0
.ENDS
***************************************
.SUBCKT ICV_2
** N=43325 EP=0 IP=0 FDC=0
.ENDS
***************************************
.SUBCKT ICV_3
** N=48372 EP=0 IP=0 FDC=0
.ENDS
***************************************
.SUBCKT ICV_4
** N=47722 EP=0 IP=0 FDC=0
.ENDS
***************************************
.SUBCKT ICV_5
** N=48910 EP=0 IP=0 FDC=0
.ENDS
***************************************
.SUBCKT ICV_6
** N=47525 EP=0 IP=0 FDC=0
.ENDS
***************************************
.SUBCKT ICV_7
** N=48199 EP=0 IP=0 FDC=0
.ENDS
***************************************
.SUBCKT ICV_8
** N=24575 EP=0 IP=0 FDC=0
.ENDS
***************************************
.SUBCKT ICV_9
** N=25943 EP=0 IP=0 FDC=0
.ENDS
***************************************
.SUBCKT ICV_10
** N=47707 EP=0 IP=0 FDC=0
.ENDS
***************************************
.SUBCKT ICV_11
** N=47526 EP=0 IP=0 FDC=0
.ENDS
***************************************
.SUBCKT ICV_12
** N=49309 EP=0 IP=0 FDC=0
.ENDS
***************************************
.SUBCKT ICV_13
** N=24961 EP=0 IP=0 FDC=0
.ENDS
***************************************
.SUBCKT ICV_14
** N=43495 EP=0 IP=0 FDC=0
.ENDS
***************************************
.SUBCKT ICV_15
** N=86056 EP=0 IP=0 FDC=0
.ENDS
***************************************
.SUBCKT ICV_16
** N=382991 EP=0 IP=0 FDC=0
.ENDS
***************************************
.SUBCKT BOUNDARY_NCORNERBWP16P90 VSS VDD
** N=14 EP=2 IP=0 FDC=0
.ENDS
***************************************
.SUBCKT BOUNDARY_NROW3BWP16P90 VSS VDD
** N=14 EP=2 IP=0 FDC=0
.ENDS
***************************************
.SUBCKT BOUNDARY_NROW4BWP16P90 VSS VDD
** N=16 EP=2 IP=0 FDC=0
.ENDS
***************************************
.SUBCKT ICV_17 1 2 3 4 5 6 7
** N=9 EP=7 IP=14 FDC=0
X0 VSS VDD BOUNDARY_NROW4BWP16P90 $T=0 0 0 0 $X=-1200 $Y=-720
X1 VSS VDD BOUNDARY_NROW4BWP16P90 $T=3600 0 0 0 $X=2400 $Y=-720
.ENDS
***************************************
.SUBCKT ICV_18 1 2 3 4 5 6 7
** N=9 EP=7 IP=14 FDC=0
X0 1 2 8 9 VSS VDD 7 ICV_17 $T=0 0 0 0 $X=-1200 $Y=-720
X1 8 9 3 4 VSS VDD 7 ICV_17 $T=7200 0 0 0 $X=6000 $Y=-720
.ENDS
***************************************
.SUBCKT ICV_19 1 2 3 4 5 6 7
** N=9 EP=7 IP=14 FDC=0
X0 1 2 8 9 VSS VDD 7 ICV_18 $T=0 0 0 0 $X=-1200 $Y=-720
X1 8 9 3 4 VSS VDD 7 ICV_18 $T=14400 0 0 0 $X=13200 $Y=-720
.ENDS
***************************************
.SUBCKT ICV_20 1 2 3 4 5 6 7
** N=9 EP=7 IP=14 FDC=0
X0 1 2 8 9 VSS VDD 7 ICV_19 $T=0 0 0 0 $X=-1200 $Y=-720
X1 8 9 3 4 VSS VDD 7 ICV_19 $T=28800 0 0 0 $X=27600 $Y=-720
.ENDS
***************************************
.SUBCKT ICV_21 1 2 3 4 5 6 7
** N=9 EP=7 IP=14 FDC=0
X0 1 2 8 9 VSS VDD 7 ICV_20 $T=0 0 0 0 $X=-1200 $Y=-720
X1 8 9 3 4 VSS VDD 7 ICV_20 $T=57600 0 0 0 $X=56400 $Y=-720
.ENDS
***************************************
.SUBCKT ICV_22 1 2 3 4 5 6 7
** N=9 EP=7 IP=14 FDC=0
X0 1 2 8 9 VSS VDD 7 ICV_21 $T=0 0 0 0 $X=-1200 $Y=-720
X1 8 9 3 4 VSS VDD 7 ICV_21 $T=115200 0 0 0 $X=114000 $Y=-720
.ENDS
***************************************
.SUBCKT BOUNDARY_NTAPBWP16P90_VPP_VSS VPP VSS VDD
** N=29 EP=3 IP=0 FDC=0
.ENDS
***************************************
.SUBCKT TAPCELLBWP16P90_VPP_VSS VPP VSS VDD
** N=28 EP=3 IP=0 FDC=0
.ENDS
***************************************
.SUBCKT DCAP64BWP16P90 VSS VDD 7
** N=70 EP=3 IP=0 FDC=128
M0 8 67 VSS VSS nch_svt_mac L=1.6e-08 nfin=4 $X=1270 $Y=670 $D=7
M1 9 67 8 VSS nch_svt_mac L=1.6e-08 nfin=4 $X=2170 $Y=670 $D=7
M2 10 67 9 VSS nch_svt_mac L=1.6e-08 nfin=4 $X=3070 $Y=670 $D=7
M3 11 67 10 VSS nch_svt_mac L=1.6e-08 nfin=4 $X=3970 $Y=670 $D=7
M4 12 67 11 VSS nch_svt_mac L=1.6e-08 nfin=4 $X=4870 $Y=670 $D=7
M5 13 67 12 VSS nch_svt_mac L=1.6e-08 nfin=4 $X=5770 $Y=670 $D=7
M6 14 67 13 VSS nch_svt_mac L=1.6e-08 nfin=4 $X=6670 $Y=670 $D=7
M7 15 67 14 VSS nch_svt_mac L=1.6e-08 nfin=4 $X=7570 $Y=670 $D=7
M8 16 67 15 VSS nch_svt_mac L=1.6e-08 nfin=4 $X=8470 $Y=670 $D=7
M9 17 67 16 VSS nch_svt_mac L=1.6e-08 nfin=4 $X=9370 $Y=670 $D=7
M10 18 67 17 VSS nch_svt_mac L=1.6e-08 nfin=4 $X=10270 $Y=670 $D=7
M11 19 67 18 VSS nch_svt_mac L=1.6e-08 nfin=4 $X=11170 $Y=670 $D=7
M12 20 67 19 VSS nch_svt_mac L=1.6e-08 nfin=4 $X=12070 $Y=670 $D=7
M13 21 67 20 VSS nch_svt_mac L=1.6e-08 nfin=4 $X=12970 $Y=670 $D=7
M14 22 67 21 VSS nch_svt_mac L=1.6e-08 nfin=4 $X=13870 $Y=670 $D=7
M15 23 67 22 VSS nch_svt_mac L=1.6e-08 nfin=4 $X=14770 $Y=670 $D=7
M16 24 67 23 VSS nch_svt_mac L=1.6e-08 nfin=4 $X=15670 $Y=670 $D=7
M17 25 67 24 VSS nch_svt_mac L=1.6e-08 nfin=4 $X=16570 $Y=670 $D=7
M18 26 67 25 VSS nch_svt_mac L=1.6e-08 nfin=4 $X=17470 $Y=670 $D=7
M19 27 67 26 VSS nch_svt_mac L=1.6e-08 nfin=4 $X=18370 $Y=670 $D=7
M20 28 67 27 VSS nch_svt_mac L=1.6e-08 nfin=4 $X=19270 $Y=670 $D=7
M21 29 67 28 VSS nch_svt_mac L=1.6e-08 nfin=4 $X=20170 $Y=670 $D=7
M22 30 67 29 VSS nch_svt_mac L=1.6e-08 nfin=4 $X=21070 $Y=670 $D=7
M23 31 67 30 VSS nch_svt_mac L=1.6e-08 nfin=4 $X=21970 $Y=670 $D=7
M24 32 67 31 VSS nch_svt_mac L=1.6e-08 nfin=4 $X=22870 $Y=670 $D=7
M25 33 67 32 VSS nch_svt_mac L=1.6e-08 nfin=4 $X=23770 $Y=670 $D=7
M26 34 67 33 VSS nch_svt_mac L=1.6e-08 nfin=4 $X=24670 $Y=670 $D=7
M27 35 67 34 VSS nch_svt_mac L=1.6e-08 nfin=4 $X=25570 $Y=670 $D=7
M28 36 67 35 VSS nch_svt_mac L=1.6e-08 nfin=4 $X=26470 $Y=670 $D=7
M29 37 67 36 VSS nch_svt_mac L=1.6e-08 nfin=4 $X=27370 $Y=670 $D=7
M30 38 67 37 VSS nch_svt_mac L=1.6e-08 nfin=4 $X=28270 $Y=670 $D=7
M31 39 67 38 VSS nch_svt_mac L=1.6e-08 nfin=4 $X=29170 $Y=670 $D=7
M32 40 67 39 VSS nch_svt_mac L=1.6e-08 nfin=4 $X=30070 $Y=670 $D=7
M33 41 67 40 VSS nch_svt_mac L=1.6e-08 nfin=4 $X=30970 $Y=670 $D=7
M34 42 67 41 VSS nch_svt_mac L=1.6e-08 nfin=4 $X=31870 $Y=670 $D=7
M35 43 67 42 VSS nch_svt_mac L=1.6e-08 nfin=4 $X=32770 $Y=670 $D=7
M36 44 67 43 VSS nch_svt_mac L=1.6e-08 nfin=4 $X=33670 $Y=670 $D=7
M37 45 67 44 VSS nch_svt_mac L=1.6e-08 nfin=4 $X=34570 $Y=670 $D=7
M38 46 67 45 VSS nch_svt_mac L=1.6e-08 nfin=4 $X=35470 $Y=670 $D=7
M39 47 67 46 VSS nch_svt_mac L=1.6e-08 nfin=4 $X=36370 $Y=670 $D=7
M40 48 67 47 VSS nch_svt_mac L=1.6e-08 nfin=4 $X=37270 $Y=670 $D=7
M41 49 67 48 VSS nch_svt_mac L=1.6e-08 nfin=4 $X=38170 $Y=670 $D=7
M42 50 67 49 VSS nch_svt_mac L=1.6e-08 nfin=4 $X=39070 $Y=670 $D=7
M43 51 67 50 VSS nch_svt_mac L=1.6e-08 nfin=4 $X=39970 $Y=670 $D=7
M44 52 67 51 VSS nch_svt_mac L=1.6e-08 nfin=4 $X=40870 $Y=670 $D=7
M45 53 67 52 VSS nch_svt_mac L=1.6e-08 nfin=4 $X=41770 $Y=670 $D=7
M46 54 67 53 VSS nch_svt_mac L=1.6e-08 nfin=4 $X=42670 $Y=670 $D=7
M47 55 67 54 VSS nch_svt_mac L=1.6e-08 nfin=4 $X=43570 $Y=670 $D=7
M48 56 67 55 VSS nch_svt_mac L=1.6e-08 nfin=4 $X=44470 $Y=670 $D=7
M49 57 67 56 VSS nch_svt_mac L=1.6e-08 nfin=4 $X=45370 $Y=670 $D=7
M50 58 67 57 VSS nch_svt_mac L=1.6e-08 nfin=4 $X=46270 $Y=670 $D=7
M51 59 67 58 VSS nch_svt_mac L=1.6e-08 nfin=4 $X=47170 $Y=670 $D=7
M52 60 67 59 VSS nch_svt_mac L=1.6e-08 nfin=4 $X=48070 $Y=670 $D=7
M53 61 67 60 VSS nch_svt_mac L=1.6e-08 nfin=4 $X=48970 $Y=670 $D=7
M54 62 67 61 VSS nch_svt_mac L=1.6e-08 nfin=4 $X=49870 $Y=670 $D=7
M55 63 67 62 VSS nch_svt_mac L=1.6e-08 nfin=4 $X=50770 $Y=670 $D=7
M56 64 67 63 VSS nch_svt_mac L=1.6e-08 nfin=4 $X=51670 $Y=670 $D=7
M57 65 67 64 VSS nch_svt_mac L=1.6e-08 nfin=4 $X=52570 $Y=670 $D=7
M58 66 67 65 VSS nch_svt_mac L=1.6e-08 nfin=4 $X=53470 $Y=670 $D=7
M59 67 67 66 VSS nch_svt_mac L=1.6e-08 nfin=4 $X=54370 $Y=670 $D=7
M60 VSS 68 67 VSS nch_svt_mac L=1.6e-08 nfin=4 $X=55270 $Y=670 $D=7
M61 67 68 VSS VSS nch_svt_mac L=1.6e-08 nfin=4 $X=56170 $Y=670 $D=7
M62 VDD 67 68 7 pch_svt_mac L=1.6e-08 nfin=4 $X=1270 $Y=3550 $D=12
M63 VDD 67 VDD 7 pch_svt_mac L=1.6e-08 nfin=4 $X=2170 $Y=3550 $D=12
M64 VDD 67 VDD 7 pch_svt_mac L=1.6e-08 nfin=4 $X=3070 $Y=3550 $D=12
M65 VDD 67 VDD 7 pch_svt_mac L=1.6e-08 nfin=4 $X=3970 $Y=3550 $D=12
M66 VDD 67 VDD 7 pch_svt_mac L=1.6e-08 nfin=4 $X=4870 $Y=3550 $D=12
M67 VDD 67 VDD 7 pch_svt_mac L=1.6e-08 nfin=4 $X=5770 $Y=3550 $D=12
M68 VDD 67 VDD 7 pch_svt_mac L=1.6e-08 nfin=4 $X=6670 $Y=3550 $D=12
M69 VDD 67 VDD 7 pch_svt_mac L=1.6e-08 nfin=4 $X=7570 $Y=3550 $D=12
M70 VDD 67 VDD 7 pch_svt_mac L=1.6e-08 nfin=4 $X=8470 $Y=3550 $D=12
M71 VDD 67 VDD 7 pch_svt_mac L=1.6e-08 nfin=4 $X=9370 $Y=3550 $D=12
M72 VDD 67 VDD 7 pch_svt_mac L=1.6e-08 nfin=4 $X=10270 $Y=3550 $D=12
M73 VDD 67 VDD 7 pch_svt_mac L=1.6e-08 nfin=4 $X=11170 $Y=3550 $D=12
M74 VDD 67 VDD 7 pch_svt_mac L=1.6e-08 nfin=4 $X=12070 $Y=3550 $D=12
M75 VDD 67 VDD 7 pch_svt_mac L=1.6e-08 nfin=4 $X=12970 $Y=3550 $D=12
M76 VDD 67 VDD 7 pch_svt_mac L=1.6e-08 nfin=4 $X=13870 $Y=3550 $D=12
M77 VDD 67 VDD 7 pch_svt_mac L=1.6e-08 nfin=4 $X=14770 $Y=3550 $D=12
M78 VDD 67 VDD 7 pch_svt_mac L=1.6e-08 nfin=4 $X=15670 $Y=3550 $D=12
M79 VDD 67 VDD 7 pch_svt_mac L=1.6e-08 nfin=4 $X=16570 $Y=3550 $D=12
M80 VDD 67 VDD 7 pch_svt_mac L=1.6e-08 nfin=4 $X=17470 $Y=3550 $D=12
M81 VDD 67 VDD 7 pch_svt_mac L=1.6e-08 nfin=4 $X=18370 $Y=3550 $D=12
M82 VDD 67 VDD 7 pch_svt_mac L=1.6e-08 nfin=4 $X=19270 $Y=3550 $D=12
M83 VDD 67 VDD 7 pch_svt_mac L=1.6e-08 nfin=4 $X=20170 $Y=3550 $D=12
M84 VDD 67 VDD 7 pch_svt_mac L=1.6e-08 nfin=4 $X=21070 $Y=3550 $D=12
M85 VDD 67 VDD 7 pch_svt_mac L=1.6e-08 nfin=4 $X=21970 $Y=3550 $D=12
M86 VDD 67 VDD 7 pch_svt_mac L=1.6e-08 nfin=4 $X=22870 $Y=3550 $D=12
M87 VDD 67 VDD 7 pch_svt_mac L=1.6e-08 nfin=4 $X=23770 $Y=3550 $D=12
M88 VDD 67 VDD 7 pch_svt_mac L=1.6e-08 nfin=4 $X=24670 $Y=3550 $D=12
M89 VDD 67 VDD 7 pch_svt_mac L=1.6e-08 nfin=4 $X=25570 $Y=3550 $D=12
M90 VDD 67 VDD 7 pch_svt_mac L=1.6e-08 nfin=4 $X=26470 $Y=3550 $D=12
M91 VDD 67 VDD 7 pch_svt_mac L=1.6e-08 nfin=4 $X=27370 $Y=3550 $D=12
M92 VDD 67 VDD 7 pch_svt_mac L=1.6e-08 nfin=4 $X=28270 $Y=3550 $D=12
M93 VDD 67 VDD 7 pch_svt_mac L=1.6e-08 nfin=4 $X=29170 $Y=3550 $D=12
M94 VDD 67 VDD 7 pch_svt_mac L=1.6e-08 nfin=4 $X=30070 $Y=3550 $D=12
M95 VDD 67 VDD 7 pch_svt_mac L=1.6e-08 nfin=4 $X=30970 $Y=3550 $D=12
M96 VDD 67 VDD 7 pch_svt_mac L=1.6e-08 nfin=4 $X=31870 $Y=3550 $D=12
M97 VDD 67 VDD 7 pch_svt_mac L=1.6e-08 nfin=4 $X=32770 $Y=3550 $D=12
M98 VDD 67 VDD 7 pch_svt_mac L=1.6e-08 nfin=4 $X=33670 $Y=3550 $D=12
M99 VDD 67 VDD 7 pch_svt_mac L=1.6e-08 nfin=4 $X=34570 $Y=3550 $D=12
M100 VDD 67 VDD 7 pch_svt_mac L=1.6e-08 nfin=4 $X=35470 $Y=3550 $D=12
M101 VDD 67 VDD 7 pch_svt_mac L=1.6e-08 nfin=4 $X=36370 $Y=3550 $D=12
M102 VDD 67 VDD 7 pch_svt_mac L=1.6e-08 nfin=4 $X=37270 $Y=3550 $D=12
M103 VDD 67 VDD 7 pch_svt_mac L=1.6e-08 nfin=4 $X=38170 $Y=3550 $D=12
M104 VDD 67 VDD 7 pch_svt_mac L=1.6e-08 nfin=4 $X=39070 $Y=3550 $D=12
M105 VDD 67 VDD 7 pch_svt_mac L=1.6e-08 nfin=4 $X=39970 $Y=3550 $D=12
M106 VDD 67 VDD 7 pch_svt_mac L=1.6e-08 nfin=4 $X=40870 $Y=3550 $D=12
M107 VDD 67 VDD 7 pch_svt_mac L=1.6e-08 nfin=4 $X=41770 $Y=3550 $D=12
M108 VDD 67 VDD 7 pch_svt_mac L=1.6e-08 nfin=4 $X=42670 $Y=3550 $D=12
M109 VDD 67 VDD 7 pch_svt_mac L=1.6e-08 nfin=4 $X=43570 $Y=3550 $D=12
M110 VDD 67 VDD 7 pch_svt_mac L=1.6e-08 nfin=4 $X=44470 $Y=3550 $D=12
M111 VDD 67 VDD 7 pch_svt_mac L=1.6e-08 nfin=4 $X=45370 $Y=3550 $D=12
M112 VDD 67 VDD 7 pch_svt_mac L=1.6e-08 nfin=4 $X=46270 $Y=3550 $D=12
M113 VDD 67 VDD 7 pch_svt_mac L=1.6e-08 nfin=4 $X=47170 $Y=3550 $D=12
M114 VDD 67 VDD 7 pch_svt_mac L=1.6e-08 nfin=4 $X=48070 $Y=3550 $D=12
M115 VDD 67 VDD 7 pch_svt_mac L=1.6e-08 nfin=4 $X=48970 $Y=3550 $D=12
M116 VDD 67 VDD 7 pch_svt_mac L=1.6e-08 nfin=4 $X=49870 $Y=3550 $D=12
M117 VDD 67 VDD 7 pch_svt_mac L=1.6e-08 nfin=4 $X=50770 $Y=3550 $D=12
M118 VDD 67 VDD 7 pch_svt_mac L=1.6e-08 nfin=4 $X=51670 $Y=3550 $D=12
M119 VDD 67 VDD 7 pch_svt_mac L=1.6e-08 nfin=4 $X=52570 $Y=3550 $D=12
M120 VDD 67 VDD 7 pch_svt_mac L=1.6e-08 nfin=4 $X=53470 $Y=3550 $D=12
M121 VDD 67 VDD 7 pch_svt_mac L=1.6e-08 nfin=4 $X=54370 $Y=3550 $D=12
M122 VDD 68 VDD 7 pch_svt_mac L=1.6e-08 nfin=4 $X=55270 $Y=3550 $D=12
M123 VDD 68 VDD 7 pch_svt_mac L=1.6e-08 nfin=4 $X=56170 $Y=3550 $D=12
X124 VSS 69 VSS npode_svt_mac nfin=4 l=1.6e-08 $X=530 $Y=670 $D=20
X125 67 70 VSS npode_svt_mac nfin=4 l=1.6e-08 $X=57060 $Y=670 $D=20
X126 68 69 7 ppode_svt_mac nfin=4 l=1.6e-08 $X=530 $Y=3550 $D=25
X127 VDD 70 7 ppode_svt_mac nfin=4 l=1.6e-08 $X=57060 $Y=3550 $D=25
.ENDS
***************************************
.SUBCKT ICV_23 1 2 3 4 5 6 7
*.CALIBRE ICV_CELL 9
** N=9 EP=7 IP=14 FDC=256
X0 VSS VDD 7 DCAP64BWP16P90 $T=0 0 0 0 $X=-1200 $Y=-720
X1 VSS VDD 7 DCAP64BWP16P90 $T=57600 0 0 0 $X=56400 $Y=-720
.ENDS
***************************************
.SUBCKT ICV_24 1 2 3 4 5 6 7
*.CALIBRE ICV_CELL 9
** N=9 EP=7 IP=14 FDC=512
X0 1 2 VSS VDD 8 9 7 ICV_23 $T=0 0 0 0 $X=-1200 $Y=-720
X1 8 9 VSS VDD 5 6 7 ICV_23 $T=115200 0 0 0 $X=114000 $Y=-720
.ENDS
***************************************
.SUBCKT DCAP32BWP16P90 VSS VDD 7
** N=38 EP=3 IP=0 FDC=64
M0 8 35 VSS VSS nch_svt_mac L=1.6e-08 nfin=4 $X=1270 $Y=670 $D=7
M1 9 35 8 VSS nch_svt_mac L=1.6e-08 nfin=4 $X=2170 $Y=670 $D=7
M2 10 35 9 VSS nch_svt_mac L=1.6e-08 nfin=4 $X=3070 $Y=670 $D=7
M3 11 35 10 VSS nch_svt_mac L=1.6e-08 nfin=4 $X=3970 $Y=670 $D=7
M4 12 35 11 VSS nch_svt_mac L=1.6e-08 nfin=4 $X=4870 $Y=670 $D=7
M5 13 35 12 VSS nch_svt_mac L=1.6e-08 nfin=4 $X=5770 $Y=670 $D=7
M6 14 35 13 VSS nch_svt_mac L=1.6e-08 nfin=4 $X=6670 $Y=670 $D=7
M7 15 35 14 VSS nch_svt_mac L=1.6e-08 nfin=4 $X=7570 $Y=670 $D=7
M8 16 35 15 VSS nch_svt_mac L=1.6e-08 nfin=4 $X=8470 $Y=670 $D=7
M9 17 35 16 VSS nch_svt_mac L=1.6e-08 nfin=4 $X=9370 $Y=670 $D=7
M10 18 35 17 VSS nch_svt_mac L=1.6e-08 nfin=4 $X=10270 $Y=670 $D=7
M11 19 35 18 VSS nch_svt_mac L=1.6e-08 nfin=4 $X=11170 $Y=670 $D=7
M12 20 35 19 VSS nch_svt_mac L=1.6e-08 nfin=4 $X=12070 $Y=670 $D=7
M13 21 35 20 VSS nch_svt_mac L=1.6e-08 nfin=4 $X=12970 $Y=670 $D=7
M14 22 35 21 VSS nch_svt_mac L=1.6e-08 nfin=4 $X=13870 $Y=670 $D=7
M15 23 35 22 VSS nch_svt_mac L=1.6e-08 nfin=4 $X=14770 $Y=670 $D=7
M16 24 35 23 VSS nch_svt_mac L=1.6e-08 nfin=4 $X=15670 $Y=670 $D=7
M17 25 35 24 VSS nch_svt_mac L=1.6e-08 nfin=4 $X=16570 $Y=670 $D=7
M18 26 35 25 VSS nch_svt_mac L=1.6e-08 nfin=4 $X=17470 $Y=670 $D=7
M19 27 35 26 VSS nch_svt_mac L=1.6e-08 nfin=4 $X=18370 $Y=670 $D=7
M20 28 35 27 VSS nch_svt_mac L=1.6e-08 nfin=4 $X=19270 $Y=670 $D=7
M21 29 35 28 VSS nch_svt_mac L=1.6e-08 nfin=4 $X=20170 $Y=670 $D=7
M22 30 35 29 VSS nch_svt_mac L=1.6e-08 nfin=4 $X=21070 $Y=670 $D=7
M23 31 35 30 VSS nch_svt_mac L=1.6e-08 nfin=4 $X=21970 $Y=670 $D=7
M24 32 35 31 VSS nch_svt_mac L=1.6e-08 nfin=4 $X=22870 $Y=670 $D=7
M25 33 35 32 VSS nch_svt_mac L=1.6e-08 nfin=4 $X=23770 $Y=670 $D=7
M26 34 35 33 VSS nch_svt_mac L=1.6e-08 nfin=4 $X=24670 $Y=670 $D=7
M27 35 35 34 VSS nch_svt_mac L=1.6e-08 nfin=4 $X=25570 $Y=670 $D=7
M28 VSS 36 35 VSS nch_svt_mac L=1.6e-08 nfin=4 $X=26470 $Y=670 $D=7
M29 35 36 VSS VSS nch_svt_mac L=1.6e-08 nfin=4 $X=27370 $Y=670 $D=7
M30 VDD 35 36 7 pch_svt_mac L=1.6e-08 nfin=4 $X=1270 $Y=3550 $D=12
M31 VDD 35 VDD 7 pch_svt_mac L=1.6e-08 nfin=4 $X=2170 $Y=3550 $D=12
M32 VDD 35 VDD 7 pch_svt_mac L=1.6e-08 nfin=4 $X=3070 $Y=3550 $D=12
M33 VDD 35 VDD 7 pch_svt_mac L=1.6e-08 nfin=4 $X=3970 $Y=3550 $D=12
M34 VDD 35 VDD 7 pch_svt_mac L=1.6e-08 nfin=4 $X=4870 $Y=3550 $D=12
M35 VDD 35 VDD 7 pch_svt_mac L=1.6e-08 nfin=4 $X=5770 $Y=3550 $D=12
M36 VDD 35 VDD 7 pch_svt_mac L=1.6e-08 nfin=4 $X=6670 $Y=3550 $D=12
M37 VDD 35 VDD 7 pch_svt_mac L=1.6e-08 nfin=4 $X=7570 $Y=3550 $D=12
M38 VDD 35 VDD 7 pch_svt_mac L=1.6e-08 nfin=4 $X=8470 $Y=3550 $D=12
M39 VDD 35 VDD 7 pch_svt_mac L=1.6e-08 nfin=4 $X=9370 $Y=3550 $D=12
M40 VDD 35 VDD 7 pch_svt_mac L=1.6e-08 nfin=4 $X=10270 $Y=3550 $D=12
M41 VDD 35 VDD 7 pch_svt_mac L=1.6e-08 nfin=4 $X=11170 $Y=3550 $D=12
M42 VDD 35 VDD 7 pch_svt_mac L=1.6e-08 nfin=4 $X=12070 $Y=3550 $D=12
M43 VDD 35 VDD 7 pch_svt_mac L=1.6e-08 nfin=4 $X=12970 $Y=3550 $D=12
M44 VDD 35 VDD 7 pch_svt_mac L=1.6e-08 nfin=4 $X=13870 $Y=3550 $D=12
M45 VDD 35 VDD 7 pch_svt_mac L=1.6e-08 nfin=4 $X=14770 $Y=3550 $D=12
M46 VDD 35 VDD 7 pch_svt_mac L=1.6e-08 nfin=4 $X=15670 $Y=3550 $D=12
M47 VDD 35 VDD 7 pch_svt_mac L=1.6e-08 nfin=4 $X=16570 $Y=3550 $D=12
M48 VDD 35 VDD 7 pch_svt_mac L=1.6e-08 nfin=4 $X=17470 $Y=3550 $D=12
M49 VDD 35 VDD 7 pch_svt_mac L=1.6e-08 nfin=4 $X=18370 $Y=3550 $D=12
M50 VDD 35 VDD 7 pch_svt_mac L=1.6e-08 nfin=4 $X=19270 $Y=3550 $D=12
M51 VDD 35 VDD 7 pch_svt_mac L=1.6e-08 nfin=4 $X=20170 $Y=3550 $D=12
M52 VDD 35 VDD 7 pch_svt_mac L=1.6e-08 nfin=4 $X=21070 $Y=3550 $D=12
M53 VDD 35 VDD 7 pch_svt_mac L=1.6e-08 nfin=4 $X=21970 $Y=3550 $D=12
M54 VDD 35 VDD 7 pch_svt_mac L=1.6e-08 nfin=4 $X=22870 $Y=3550 $D=12
M55 VDD 35 VDD 7 pch_svt_mac L=1.6e-08 nfin=4 $X=23770 $Y=3550 $D=12
M56 VDD 35 VDD 7 pch_svt_mac L=1.6e-08 nfin=4 $X=24670 $Y=3550 $D=12
M57 VDD 35 VDD 7 pch_svt_mac L=1.6e-08 nfin=4 $X=25570 $Y=3550 $D=12
M58 VDD 36 VDD 7 pch_svt_mac L=1.6e-08 nfin=4 $X=26470 $Y=3550 $D=12
M59 VDD 36 VDD 7 pch_svt_mac L=1.6e-08 nfin=4 $X=27370 $Y=3550 $D=12
X60 VSS 37 VSS npode_svt_mac nfin=4 l=1.6e-08 $X=530 $Y=670 $D=20
X61 35 38 VSS npode_svt_mac nfin=4 l=1.6e-08 $X=28260 $Y=670 $D=20
X62 36 37 7 ppode_svt_mac nfin=4 l=1.6e-08 $X=530 $Y=3550 $D=25
X63 VDD 38 7 ppode_svt_mac nfin=4 l=1.6e-08 $X=28260 $Y=3550 $D=25
.ENDS
***************************************
.SUBCKT ICV_25 1 2 3 4 5 6 7
*.CALIBRE ICV_CELL 9
** N=9 EP=7 IP=14 FDC=192
X0 VSS VDD 7 DCAP64BWP16P90 $T=0 0 0 0 $X=-1200 $Y=-720
X1 VSS VDD 7 DCAP32BWP16P90 $T=57600 0 0 0 $X=56400 $Y=-720
.ENDS
***************************************
.SUBCKT DCAP16BWP16P90 VSS VDD 7
** N=22 EP=3 IP=0 FDC=32
M0 8 19 VSS VSS nch_svt_mac L=1.6e-08 nfin=4 $X=1270 $Y=670 $D=7
M1 9 19 8 VSS nch_svt_mac L=1.6e-08 nfin=4 $X=2170 $Y=670 $D=7
M2 10 19 9 VSS nch_svt_mac L=1.6e-08 nfin=4 $X=3070 $Y=670 $D=7
M3 11 19 10 VSS nch_svt_mac L=1.6e-08 nfin=4 $X=3970 $Y=670 $D=7
M4 12 19 11 VSS nch_svt_mac L=1.6e-08 nfin=4 $X=4870 $Y=670 $D=7
M5 13 19 12 VSS nch_svt_mac L=1.6e-08 nfin=4 $X=5770 $Y=670 $D=7
M6 14 19 13 VSS nch_svt_mac L=1.6e-08 nfin=4 $X=6670 $Y=670 $D=7
M7 15 19 14 VSS nch_svt_mac L=1.6e-08 nfin=4 $X=7570 $Y=670 $D=7
M8 16 19 15 VSS nch_svt_mac L=1.6e-08 nfin=4 $X=8470 $Y=670 $D=7
M9 17 19 16 VSS nch_svt_mac L=1.6e-08 nfin=4 $X=9370 $Y=670 $D=7
M10 18 19 17 VSS nch_svt_mac L=1.6e-08 nfin=4 $X=10270 $Y=670 $D=7
M11 19 19 18 VSS nch_svt_mac L=1.6e-08 nfin=4 $X=11170 $Y=670 $D=7
M12 VSS 20 19 VSS nch_svt_mac L=1.6e-08 nfin=4 $X=12070 $Y=670 $D=7
M13 19 20 VSS VSS nch_svt_mac L=1.6e-08 nfin=4 $X=12970 $Y=670 $D=7
M14 VDD 19 20 7 pch_svt_mac L=1.6e-08 nfin=4 $X=1270 $Y=3550 $D=12
M15 VDD 19 VDD 7 pch_svt_mac L=1.6e-08 nfin=4 $X=2170 $Y=3550 $D=12
M16 VDD 19 VDD 7 pch_svt_mac L=1.6e-08 nfin=4 $X=3070 $Y=3550 $D=12
M17 VDD 19 VDD 7 pch_svt_mac L=1.6e-08 nfin=4 $X=3970 $Y=3550 $D=12
M18 VDD 19 VDD 7 pch_svt_mac L=1.6e-08 nfin=4 $X=4870 $Y=3550 $D=12
M19 VDD 19 VDD 7 pch_svt_mac L=1.6e-08 nfin=4 $X=5770 $Y=3550 $D=12
M20 VDD 19 VDD 7 pch_svt_mac L=1.6e-08 nfin=4 $X=6670 $Y=3550 $D=12
M21 VDD 19 VDD 7 pch_svt_mac L=1.6e-08 nfin=4 $X=7570 $Y=3550 $D=12
M22 VDD 19 VDD 7 pch_svt_mac L=1.6e-08 nfin=4 $X=8470 $Y=3550 $D=12
M23 VDD 19 VDD 7 pch_svt_mac L=1.6e-08 nfin=4 $X=9370 $Y=3550 $D=12
M24 VDD 19 VDD 7 pch_svt_mac L=1.6e-08 nfin=4 $X=10270 $Y=3550 $D=12
M25 VDD 19 VDD 7 pch_svt_mac L=1.6e-08 nfin=4 $X=11170 $Y=3550 $D=12
M26 VDD 20 VDD 7 pch_svt_mac L=1.6e-08 nfin=4 $X=12070 $Y=3550 $D=12
M27 VDD 20 VDD 7 pch_svt_mac L=1.6e-08 nfin=4 $X=12970 $Y=3550 $D=12
X28 VSS 21 VSS npode_svt_mac nfin=4 l=1.6e-08 $X=530 $Y=670 $D=20
X29 19 22 VSS npode_svt_mac nfin=4 l=1.6e-08 $X=13860 $Y=670 $D=20
X30 20 21 7 ppode_svt_mac nfin=4 l=1.6e-08 $X=530 $Y=3550 $D=25
X31 VDD 22 7 ppode_svt_mac nfin=4 l=1.6e-08 $X=13860 $Y=3550 $D=25
.ENDS
***************************************
.SUBCKT DCAP8BWP16P90 VSS VDD 7
** N=14 EP=3 IP=0 FDC=16
M0 8 11 VSS VSS nch_svt_mac L=1.6e-08 nfin=4 $X=1270 $Y=670 $D=7
M1 9 11 8 VSS nch_svt_mac L=1.6e-08 nfin=4 $X=2170 $Y=670 $D=7
M2 10 11 9 VSS nch_svt_mac L=1.6e-08 nfin=4 $X=3070 $Y=670 $D=7
M3 11 11 10 VSS nch_svt_mac L=1.6e-08 nfin=4 $X=3970 $Y=670 $D=7
M4 VSS 12 11 VSS nch_svt_mac L=1.6e-08 nfin=4 $X=4870 $Y=670 $D=7
M5 11 12 VSS VSS nch_svt_mac L=1.6e-08 nfin=4 $X=5770 $Y=670 $D=7
M6 VDD 11 12 7 pch_svt_mac L=1.6e-08 nfin=4 $X=1270 $Y=3550 $D=12
M7 VDD 11 VDD 7 pch_svt_mac L=1.6e-08 nfin=4 $X=2170 $Y=3550 $D=12
M8 VDD 11 VDD 7 pch_svt_mac L=1.6e-08 nfin=4 $X=3070 $Y=3550 $D=12
M9 VDD 11 VDD 7 pch_svt_mac L=1.6e-08 nfin=4 $X=3970 $Y=3550 $D=12
M10 VDD 12 VDD 7 pch_svt_mac L=1.6e-08 nfin=4 $X=4870 $Y=3550 $D=12
M11 VDD 12 VDD 7 pch_svt_mac L=1.6e-08 nfin=4 $X=5770 $Y=3550 $D=12
X12 VSS 13 VSS npode_svt_mac nfin=4 l=1.6e-08 $X=530 $Y=670 $D=20
X13 11 14 VSS npode_svt_mac nfin=4 l=1.6e-08 $X=6660 $Y=670 $D=20
X14 12 13 7 ppode_svt_mac nfin=4 l=1.6e-08 $X=530 $Y=3550 $D=25
X15 VDD 14 7 ppode_svt_mac nfin=4 l=1.6e-08 $X=6660 $Y=3550 $D=25
.ENDS
***************************************
.SUBCKT ICV_26 1 2 3 4 5 6 7
*.CALIBRE ICV_CELL 9
** N=9 EP=7 IP=14 FDC=48
X0 VSS VDD 7 DCAP16BWP16P90 $T=0 0 0 0 $X=-1200 $Y=-720
X1 VSS VDD 7 DCAP8BWP16P90 $T=14400 0 0 0 $X=13200 $Y=-720
.ENDS
***************************************
.SUBCKT ICV_27 1 2 3 4 5 6 7
*.CALIBRE ICV_CELL 9
** N=9 EP=7 IP=14 FDC=240
X0 VDD 2 3 VSS 8 9 7 ICV_25 $T=0 0 0 0 $X=-1200 $Y=-720
X1 8 9 VSS VDD 5 6 7 ICV_26 $T=86400 0 0 0 $X=85200 $Y=-720
.ENDS
***************************************
.SUBCKT FILL3BWP16P90 VSS VDD
** N=14 EP=2 IP=0 FDC=0
.ENDS
***************************************
.SUBCKT BOUNDARY_RIGHTBWP16P90 VSS VDD
** N=14 EP=2 IP=0 FDC=0
.ENDS
***************************************
.SUBCKT ICV_28 1 2 3 4 5
** N=7 EP=5 IP=12 FDC=0
X0 VSS VDD FILL3BWP16P90 $T=0 0 0 0 $X=-1200 $Y=-720
X1 VSS VDD BOUNDARY_RIGHTBWP16P90 $T=2700 0 0 0 $X=1500 $Y=-720
.ENDS
***************************************
.SUBCKT ICV_29 1 2 3 4 5 6
*.CALIBRE ICV_CELL 9
** N=12 EP=6 IP=27 FDC=752
X0 6 VSS VDD TAPCELLBWP16P90_VPP_VSS $T=0 0 0 0 $X=-1200 $Y=-720
X1 7 8 VSS VDD 9 10 5 ICV_24 $T=7200 0 0 0 $X=6000 $Y=-720
X2 VDD 9 10 VSS 11 12 5 ICV_27 $T=237600 0 0 0 $X=236400 $Y=-720
X3 11 12 VSS VDD 5 ICV_28 $T=345600 0 0 0 $X=344400 $Y=-720
.ENDS
***************************************
.SUBCKT FILL1BWP16P90 VSS VDD
** N=8 EP=2 IP=0 FDC=0
.ENDS
***************************************
.SUBCKT DCAP4BWP16P90 VSS VDD 7
** N=11 EP=3 IP=0 FDC=8
M0 VSS 8 VSS VSS nch_svt_mac L=1.6e-08 nfin=4 $X=1270 $Y=670 $D=7
M1 8 9 VSS VSS nch_svt_mac L=1.6e-08 nfin=4 $X=2170 $Y=670 $D=7
M2 VDD 8 9 7 pch_svt_mac L=1.6e-08 nfin=4 $X=1270 $Y=3550 $D=12
M3 VDD 9 VDD 7 pch_svt_mac L=1.6e-08 nfin=4 $X=2170 $Y=3550 $D=12
X4 VSS 10 VSS npode_svt_mac nfin=4 l=1.6e-08 $X=530 $Y=670 $D=20
X5 8 11 VSS npode_svt_mac nfin=4 l=1.6e-08 $X=3060 $Y=670 $D=20
X6 9 10 7 ppode_svt_mac nfin=4 l=1.6e-08 $X=530 $Y=3550 $D=25
X7 VDD 11 7 ppode_svt_mac nfin=4 l=1.6e-08 $X=3060 $Y=3550 $D=25
.ENDS
***************************************
.SUBCKT ICV_30 1 2 3 4 5 6 7
*.CALIBRE ICV_CELL 9
** N=9 EP=7 IP=14 FDC=1024
X0 1 2 VSS VDD 8 9 7 ICV_24 $T=0 0 0 0 $X=-1200 $Y=-720
X1 8 9 VSS VDD 5 6 7 ICV_24 $T=230400 0 0 0 $X=229200 $Y=-720
.ENDS
***************************************
.SUBCKT INVD1BWP20P90 VSS VDD I ZN
** N=16 EP=4 IP=0 FDC=0
.ENDS
***************************************
.SUBCKT ICV_31 1 2 3 4 5 6 7
*.CALIBRE ICV_CELL 9
** N=9 EP=7 IP=14 FDC=2048
X0 2 3 VSS VDD 8 9 7 ICV_30 $T=0 0 0 0 $X=-1200 $Y=-720
X1 8 9 VSS VDD 5 6 7 ICV_30 $T=460800 0 0 0 $X=459600 $Y=-720
.ENDS
***************************************
.SUBCKT ICV_32 1 2 3 4 5 6 7
*.CALIBRE ICV_CELL 9
** N=11 EP=7 IP=21 FDC=960
X0 8 9 VSS VDD 10 11 7 ICV_23 $T=230400 0 0 0 $X=229200 $Y=-720
X1 3 4 VSS VDD 8 9 7 ICV_24 $T=0 0 0 0 $X=-1200 $Y=-720
X2 VDD 10 11 VSS 5 6 7 ICV_25 $T=345600 0 0 0 $X=344400 $Y=-720
.ENDS
***************************************
.SUBCKT ICV_33 1 2 3 4 5
*.CALIBRE ICV_CELL 9
** N=9 EP=5 IP=19 FDC=3008
X0 6 7 VSS VDD 5 ICV_28 $T=1353600 0 0 0 $X=1352400 $Y=-720
X1 VDD 2 3 VSS 8 9 5 ICV_31 $T=0 0 0 0 $X=-1200 $Y=-720
X2 VDD VSS 8 9 6 7 5 ICV_32 $T=921600 0 0 0 $X=920400 $Y=-720
.ENDS
***************************************
.SUBCKT ICV_34 1 2 3 4 5 6 7
*.CALIBRE ICV_CELL 9
** N=9 EP=7 IP=14 FDC=176
X0 VSS VDD 7 DCAP64BWP16P90 $T=0 0 0 0 $X=-1200 $Y=-720
X1 8 9 VSS VDD 5 6 7 ICV_26 $T=57600 0 0 0 $X=56400 $Y=-720
.ENDS
***************************************
.SUBCKT ICV_35 1 2 3 4 5 6 7
*.CALIBRE ICV_CELL 9
** N=9 EP=7 IP=14 FDC=752
X0 2 3 VSS VDD 8 9 7 ICV_24 $T=0 0 0 0 $X=-1200 $Y=-720
X1 VDD 8 9 VSS 5 6 7 ICV_27 $T=230400 0 0 0 $X=229200 $Y=-720
.ENDS
***************************************
.SUBCKT ICV_36 1 2 3 4 5
*.CALIBRE ICV_CELL 9
** N=7 EP=5 IP=12 FDC=752
X0 6 7 VSS VDD 5 ICV_28 $T=338400 0 0 0 $X=337200 $Y=-720
X1 VDD 3 4 VSS 6 7 5 ICV_35 $T=0 0 0 0 $X=-1200 $Y=-720
.ENDS
***************************************
.SUBCKT ICV_37 1 2 3 4 5 6
*.CALIBRE ICV_CELL 9
** N=12 EP=6 IP=27 FDC=2976
X0 6 VSS VDD TAPCELLBWP16P90_VPP_VSS $T=1000800 0 0 0 $X=999600 $Y=-720
X1 VDD 3 4 VSS 11 12 5 ICV_31 $T=0 0 0 0 $X=-1200 $Y=-720
X2 VDD 11 12 VSS 7 8 5 ICV_34 $T=921600 0 0 0 $X=920400 $Y=-720
X3 VDD VSS 9 10 5 ICV_36 $T=1008000 0 0 0 $X=1006800 $Y=-720
.ENDS
***************************************
.SUBCKT ICV_38 1 2 3 4 5 6 7 8 9
*.CALIBRE ICV_CELL 9
** N=9 EP=9 IP=11 FDC=5984
X0 VDD 1 2 VSS 7 ICV_33 $T=-7200 0 1 0 $X=-8400 $Y=-6960
X1 VDD VSS 5 6 8 9 ICV_37 $T=0 0 0 0 $X=-1200 $Y=-720
.ENDS
***************************************
.SUBCKT ICV_39 1 2 3 4 5 6 7 8 9 10 11 12 13 14
*.CALIBRE ICV_CELL 9
** N=14 EP=14 IP=18 FDC=11968
X0 3 2 VSS VDD 5 6 11 12 12 ICV_38 $T=0 -11520 0 0 $X=-8400 $Y=-18480
X1 8 7 VSS VDD 9 10 12 13 14 ICV_38 $T=0 0 0 0 $X=-8400 $Y=-6960
.ENDS
***************************************
.SUBCKT BUFFD2BWP16P90LVT VSS VDD I Z
** N=22 EP=4 IP=0 FDC=0
.ENDS
***************************************
.SUBCKT ICV_40 1 2 3 4 5 6 7 8
*.CALIBRE ICV_CELL 9
** N=10 EP=8 IP=15 FDC=8
X0 8 VSS VDD TAPCELLBWP16P90_VPP_VSS $T=3600 0 0 0 $X=2400 $Y=-720
X1 VSS VDD 7 DCAP4BWP16P90 $T=0 0 0 0 $X=-1200 $Y=-720
.ENDS
***************************************
.SUBCKT ICV_41 1 2 3 4 5 6 7 8
*.CALIBRE ICV_CELL 9
** N=12 EP=8 IP=22 FDC=88
X0 VSS VDD 7 DCAP32BWP16P90 $T=0 0 0 0 $X=-1200 $Y=-720
X1 VSS VDD 7 DCAP8BWP16P90 $T=28800 0 0 0 $X=27600 $Y=-720
X2 VDD VSS 5 6 11 12 7 8 ICV_40 $T=36000 0 0 0 $X=34800 $Y=-720
.ENDS
***************************************
.SUBCKT BOUNDARY_LEFTBWP16P90 VSS VDD
** N=14 EP=2 IP=0 FDC=0
.ENDS
***************************************
.SUBCKT ICV_42 1 2 3 4 5
*.CALIBRE ICV_CELL 9
** N=7 EP=5 IP=12 FDC=1024
X0 6 7 VSS VDD 3 4 5 ICV_30 $T=3600 0 0 0 $X=2400 $Y=-720
X1 VSS VDD BOUNDARY_LEFTBWP16P90 $T=0 0 0 0 $X=-1200 $Y=-720
.ENDS
***************************************
.SUBCKT ICV_43 1 2 3 4 5 6
*.CALIBRE ICV_CELL 9
** N=10 EP=6 IP=20 FDC=2136
X0 7 8 VSS VDD 3 4 5 ICV_30 $T=511200 0 0 0 $X=510000 $Y=-720
X1 VDD 9 10 VSS 7 8 5 6 ICV_41 $T=464400 0 0 0 $X=463200 $Y=-720
X2 VDD VSS 9 10 5 ICV_42 $T=0 0 0 0 $X=-1200 $Y=-720
.ENDS
***************************************
.SUBCKT ICV_44 1 2 3 4 5
*.CALIBRE ICV_CELL 9
** N=7 EP=5 IP=12 FDC=2048
X0 VDD 6 7 VSS 3 4 5 ICV_31 $T=3600 0 0 0 $X=2400 $Y=-720
X1 VSS VDD BOUNDARY_LEFTBWP16P90 $T=0 0 0 0 $X=-1200 $Y=-720
.ENDS
***************************************
.SUBCKT ICV_45 1 2 3 4 5 6
*.CALIBRE ICV_CELL 9
** N=10 EP=6 IP=20 FDC=2248
X0 VDD 7 8 VSS 9 10 5 ICV_25 $T=925200 0 0 0 $X=924000 $Y=-720
X1 VDD VSS 3 4 9 10 5 6 ICV_40 $T=1011600 0 0 0 $X=1010400 $Y=-720
X2 VSS VDD 7 8 5 ICV_44 $T=0 0 0 0 $X=-1200 $Y=-720
.ENDS
***************************************
.SUBCKT ICV_46 1 2 3 4 5 6
*.CALIBRE ICV_CELL 9
** N=8 EP=6 IP=13 FDC=2264
X0 VSS VDD 5 DCAP64BWP16P90 $T=972000 0 0 0 $X=970800 $Y=-720
X1 VDD VSS 7 8 5 6 ICV_43 $T=0 0 0 0 $X=-1200 $Y=-720
.ENDS
***************************************
.SUBCKT ICV_47 1 2 3 4 5 6 7 8 9 10
*.CALIBRE ICV_CELL 9
** N=10 EP=10 IP=12 FDC=4512
X0 VDD VSS 3 4 7 9 ICV_45 $T=0 0 1 0 $X=-1200 $Y=-6960
X1 VSS VDD 5 6 8 10 ICV_46 $T=0 0 0 0 $X=-1200 $Y=-720
.ENDS
***************************************
.SUBCKT ICV_48 1 2 3 4 5 6 7 8 9 10 11 12 13 14 15 16
*.CALIBRE ICV_CELL 9
** N=17 EP=16 IP=20 FDC=9024
X0 VSS VDD 3 2 5 6 11 12 14 15 ICV_47 $T=0 -11520 0 0 $X=-1200 $Y=-18480
X1 VSS VDD 8 7 9 10 12 13 17 16 ICV_47 $T=0 0 0 0 $X=-1200 $Y=-6960
*.CALIBRE WARNING SCONNECT SCONNECT conflict(s) detected by extraction in this cell. See extraction report for details.
.ENDS
***************************************