************************************************************************************
* TSMC Library/IP Product
* Filename: N16ADFP_StdCell_100b.spi
* Product Type: Standard Cell
* Product Name: N16ADFP_StdCell
* Version: 100b
*************************************************************************************
**
*  STATEMENT OF USE
*
*  This information contains confidential and proprietary information of TSMC.
*  No part of this information may be reproduced, transmitted, transcribed,
*  stored in a retrieval system, or translated into any human or computer
*  language, in any form or by any means, electronic, mechanical, magnetic,
*  optical, chemical, manual, or otherwise, without the prior written permission
*  of TSMC.  This information was prepared for informational purpose and is for
*  use by TSMC's customers only.  TSMC reserves the right to make changes in the
*  information at any time and without notice.
*
**************************************************************************************
.subckt AN2D12BWP16P90 A1 A2 Z VDD VSS
.ends
.subckt AN2D12BWP16P90LVT A1 A2 Z VDD VSS
.ends
.subckt AN2D12BWP20P90 A1 A2 Z VDD VSS
.ends
.subckt AN2D12BWP20P90LVT A1 A2 Z VDD VSS
.ends
.subckt AN2D16BWP16P90 A1 A2 Z VDD VSS
.ends
.subckt AN2D16BWP16P90LVT A1 A2 Z VDD VSS
.ends
.subckt AN2D16BWP20P90 A1 A2 Z VDD VSS
.ends
.subckt AN2D16BWP20P90LVT A1 A2 Z VDD VSS
.ends
.subckt AN2D1BWP16P90 A1 A2 Z VDD VSS
.ends
.subckt AN2D1BWP16P90LVT A1 A2 Z VDD VSS
.ends
.subckt AN2D1BWP20P90 A1 A2 Z VDD VSS
.ends
.subckt AN2D1BWP20P90LVT A1 A2 Z VDD VSS
.ends
.subckt AN2D2BWP16P90 A1 A2 Z VDD VSS
.ends
.subckt AN2D2BWP16P90LVT A1 A2 Z VDD VSS
.ends
.subckt AN2D2BWP20P90 A1 A2 Z VDD VSS
.ends
.subckt AN2D2BWP20P90LVT A1 A2 Z VDD VSS
.ends
.subckt AN2D4BWP16P90 A1 A2 Z VDD VSS
.ends
.subckt AN2D4BWP16P90LVT A1 A2 Z VDD VSS
.ends
.subckt AN2D4BWP20P90 A1 A2 Z VDD VSS
.ends
.subckt AN2D4BWP20P90LVT A1 A2 Z VDD VSS
.ends
.subckt AN2D8BWP16P90 A1 A2 Z VDD VSS
.ends
.subckt AN2D8BWP16P90LVT A1 A2 Z VDD VSS
.ends
.subckt AN2D8BWP20P90 A1 A2 Z VDD VSS
.ends
.subckt AN2D8BWP20P90LVT A1 A2 Z VDD VSS
.ends
.subckt AN3D1BWP16P90 A1 A2 A3 Z VDD VSS
.ends
.subckt AN3D1BWP16P90LVT A1 A2 A3 Z VDD VSS
.ends
.subckt AN3D1BWP20P90 A1 A2 A3 Z VDD VSS
.ends
.subckt AN3D1BWP20P90LVT A1 A2 A3 Z VDD VSS
.ends
.subckt AN3D2BWP16P90 A1 A2 A3 Z VDD VSS
.ends
.subckt AN3D2BWP16P90LVT A1 A2 A3 Z VDD VSS
.ends
.subckt AN3D2BWP20P90 A1 A2 A3 Z VDD VSS
.ends
.subckt AN3D2BWP20P90LVT A1 A2 A3 Z VDD VSS
.ends
.subckt AN3D4BWP16P90 A1 A2 A3 Z VDD VSS
.ends
.subckt AN3D4BWP16P90LVT A1 A2 A3 Z VDD VSS
.ends
.subckt AN3D4BWP20P90 A1 A2 A3 Z VDD VSS
.ends
.subckt AN3D4BWP20P90LVT A1 A2 A3 Z VDD VSS
.ends
.subckt AN3D8BWP16P90 A1 A2 A3 Z VDD VSS
.ends
.subckt AN3D8BWP16P90LVT A1 A2 A3 Z VDD VSS
.ends
.subckt AN3D8BWP20P90 A1 A2 A3 Z VDD VSS
.ends
.subckt AN3D8BWP20P90LVT A1 A2 A3 Z VDD VSS
.ends
.subckt AN4D1BWP16P90 A1 A2 A3 A4 Z VDD VSS
.ends
.subckt AN4D1BWP16P90LVT A1 A2 A3 A4 Z VDD VSS
.ends
.subckt AN4D1BWP20P90 A1 A2 A3 A4 Z VDD VSS
.ends
.subckt AN4D1BWP20P90LVT A1 A2 A3 A4 Z VDD VSS
.ends
.subckt AN4D2BWP16P90 A1 A2 A3 A4 Z VDD VSS
.ends
.subckt AN4D2BWP16P90LVT A1 A2 A3 A4 Z VDD VSS
.ends
.subckt AN4D2BWP20P90 A1 A2 A3 A4 Z VDD VSS
.ends
.subckt AN4D2BWP20P90LVT A1 A2 A3 A4 Z VDD VSS
.ends
.subckt AN4D4BWP16P90 A1 A2 A3 A4 Z VDD VSS
.ends
.subckt AN4D4BWP16P90LVT A1 A2 A3 A4 Z VDD VSS
.ends
.subckt AN4D4BWP20P90 A1 A2 A3 A4 Z VDD VSS
.ends
.subckt AN4D4BWP20P90LVT A1 A2 A3 A4 Z VDD VSS
.ends
.subckt AN4D8BWP16P90 A1 A2 A3 A4 Z VDD VSS
.ends
.subckt AN4D8BWP16P90LVT A1 A2 A3 A4 Z VDD VSS
.ends
.subckt AN4D8BWP20P90 A1 A2 A3 A4 Z VDD VSS
.ends
.subckt AN4D8BWP20P90LVT A1 A2 A3 A4 Z VDD VSS
.ends
.subckt AO21D1BWP16P90 A1 A2 B Z VDD VSS
.ends
.subckt AO21D1BWP16P90LVT A1 A2 B Z VDD VSS
.ends
.subckt AO21D1BWP20P90 A1 A2 B Z VDD VSS
.ends
.subckt AO21D1BWP20P90LVT A1 A2 B Z VDD VSS
.ends
.subckt AO21D2BWP16P90 A1 A2 B Z VDD VSS
.ends
.subckt AO21D2BWP16P90LVT A1 A2 B Z VDD VSS
.ends
.subckt AO21D2BWP20P90 A1 A2 B Z VDD VSS
.ends
.subckt AO21D2BWP20P90LVT A1 A2 B Z VDD VSS
.ends
.subckt AO21D4BWP16P90 A1 A2 B Z VDD VSS
.ends
.subckt AO21D4BWP16P90LVT A1 A2 B Z VDD VSS
.ends
.subckt AO21D4BWP20P90 A1 A2 B Z VDD VSS
.ends
.subckt AO21D4BWP20P90LVT A1 A2 B Z VDD VSS
.ends
.subckt AO22D1BWP16P90 A1 A2 B1 B2 Z VDD VSS
.ends
.subckt AO22D1BWP16P90LVT A1 A2 B1 B2 Z VDD VSS
.ends
.subckt AO22D1BWP20P90 A1 A2 B1 B2 Z VDD VSS
.ends
.subckt AO22D1BWP20P90LVT A1 A2 B1 B2 Z VDD VSS
.ends
.subckt AO22D2BWP16P90 A1 A2 B1 B2 Z VDD VSS
.ends
.subckt AO22D2BWP16P90LVT A1 A2 B1 B2 Z VDD VSS
.ends
.subckt AO22D2BWP20P90 A1 A2 B1 B2 Z VDD VSS
.ends
.subckt AO22D2BWP20P90LVT A1 A2 B1 B2 Z VDD VSS
.ends
.subckt AO22D4BWP16P90 A1 A2 B1 B2 Z VDD VSS
.ends
.subckt AO22D4BWP16P90LVT A1 A2 B1 B2 Z VDD VSS
.ends
.subckt AO22D4BWP20P90 A1 A2 B1 B2 Z VDD VSS
.ends
.subckt AO22D4BWP20P90LVT A1 A2 B1 B2 Z VDD VSS
.ends
.subckt AOAI211D1BWP16P90 A1 A2 B C ZN VDD VSS
.ends
.subckt AOAI211D1BWP16P90LVT A1 A2 B C ZN VDD VSS
.ends
.subckt AOAI211D1BWP20P90 A1 A2 B C ZN VDD VSS
.ends
.subckt AOAI211D1BWP20P90LVT A1 A2 B C ZN VDD VSS
.ends
.subckt AOAI211D2BWP16P90 A1 A2 B C ZN VDD VSS
.ends
.subckt AOAI211D2BWP16P90LVT A1 A2 B C ZN VDD VSS
.ends
.subckt AOAI211D2BWP20P90 A1 A2 B C ZN VDD VSS
.ends
.subckt AOAI211D2BWP20P90LVT A1 A2 B C ZN VDD VSS
.ends
.subckt AOAI211D4BWP16P90 A1 A2 B C ZN VDD VSS
.ends
.subckt AOAI211D4BWP16P90LVT A1 A2 B C ZN VDD VSS
.ends
.subckt AOAI211D4BWP20P90 A1 A2 B C ZN VDD VSS
.ends
.subckt AOAI211D4BWP20P90LVT A1 A2 B C ZN VDD VSS
.ends
.subckt AOI211D1BWP16P90 A1 A2 B C ZN VDD VSS
.ends
.subckt AOI211D1BWP16P90LVT A1 A2 B C ZN VDD VSS
.ends
.subckt AOI211D1BWP20P90 A1 A2 B C ZN VDD VSS
.ends
.subckt AOI211D1BWP20P90LVT A1 A2 B C ZN VDD VSS
.ends
.subckt AOI211D2BWP16P90 A1 A2 B C ZN VDD VSS
.ends
.subckt AOI211D2BWP16P90LVT A1 A2 B C ZN VDD VSS
.ends
.subckt AOI211D2BWP20P90 A1 A2 B C ZN VDD VSS
.ends
.subckt AOI211D2BWP20P90LVT A1 A2 B C ZN VDD VSS
.ends
.subckt AOI211D4BWP16P90 A1 A2 B C ZN VDD VSS
.ends
.subckt AOI211D4BWP16P90LVT A1 A2 B C ZN VDD VSS
.ends
.subckt AOI211D4BWP20P90 A1 A2 B C ZN VDD VSS
.ends
.subckt AOI211D4BWP20P90LVT A1 A2 B C ZN VDD VSS
.ends
.subckt AOI211D8BWP16P90 A1 A2 B C ZN VDD VSS
.ends
.subckt AOI211D8BWP16P90LVT A1 A2 B C ZN VDD VSS
.ends
.subckt AOI211D8BWP20P90 A1 A2 B C ZN VDD VSS
.ends
.subckt AOI211D8BWP20P90LVT A1 A2 B C ZN VDD VSS
.ends
.subckt AOI21D1BWP16P90 A1 A2 B ZN VDD VSS
.ends
.subckt AOI21D1BWP16P90LVT A1 A2 B ZN VDD VSS
.ends
.subckt AOI21D1BWP20P90 A1 A2 B ZN VDD VSS
.ends
.subckt AOI21D1BWP20P90LVT A1 A2 B ZN VDD VSS
.ends
.subckt AOI21D2BWP16P90 A1 A2 B ZN VDD VSS
.ends
.subckt AOI21D2BWP16P90LVT A1 A2 B ZN VDD VSS
.ends
.subckt AOI21D2BWP20P90 A1 A2 B ZN VDD VSS
.ends
.subckt AOI21D2BWP20P90LVT A1 A2 B ZN VDD VSS
.ends
.subckt AOI21D4BWP16P90 A1 A2 B ZN VDD VSS
.ends
.subckt AOI21D4BWP16P90LVT A1 A2 B ZN VDD VSS
.ends
.subckt AOI21D4BWP20P90 A1 A2 B ZN VDD VSS
.ends
.subckt AOI21D4BWP20P90LVT A1 A2 B ZN VDD VSS
.ends
.subckt AOI21D8BWP16P90 A1 A2 B ZN VDD VSS
.ends
.subckt AOI21D8BWP16P90LVT A1 A2 B ZN VDD VSS
.ends
.subckt AOI21D8BWP20P90 A1 A2 B ZN VDD VSS
.ends
.subckt AOI21D8BWP20P90LVT A1 A2 B ZN VDD VSS
.ends
.subckt AOI221D1BWP16P90 A1 A2 B1 B2 C ZN VDD VSS
.ends
.subckt AOI221D1BWP16P90LVT A1 A2 B1 B2 C ZN VDD VSS
.ends
.subckt AOI221D1BWP20P90 A1 A2 B1 B2 C ZN VDD VSS
.ends
.subckt AOI221D1BWP20P90LVT A1 A2 B1 B2 C ZN VDD VSS
.ends
.subckt AOI221D2BWP16P90 A1 A2 B1 B2 C ZN VDD VSS
.ends
.subckt AOI221D2BWP16P90LVT A1 A2 B1 B2 C ZN VDD VSS
.ends
.subckt AOI221D2BWP20P90 A1 A2 B1 B2 C ZN VDD VSS
.ends
.subckt AOI221D2BWP20P90LVT A1 A2 B1 B2 C ZN VDD VSS
.ends
.subckt AOI221D4BWP16P90 A1 A2 B1 B2 C ZN VDD VSS
.ends
.subckt AOI221D4BWP16P90LVT A1 A2 B1 B2 C ZN VDD VSS
.ends
.subckt AOI221D4BWP20P90 A1 A2 B1 B2 C ZN VDD VSS
.ends
.subckt AOI221D4BWP20P90LVT A1 A2 B1 B2 C ZN VDD VSS
.ends
.subckt AOI222D1BWP16P90 A1 A2 B1 B2 C1 C2 ZN VDD VSS
.ends
.subckt AOI222D1BWP16P90LVT A1 A2 B1 B2 C1 C2 ZN VDD VSS
.ends
.subckt AOI222D1BWP20P90 A1 A2 B1 B2 C1 C2 ZN VDD VSS
.ends
.subckt AOI222D1BWP20P90LVT A1 A2 B1 B2 C1 C2 ZN VDD VSS
.ends
.subckt AOI222D2BWP16P90 A1 A2 B1 B2 C1 C2 ZN VDD VSS
.ends
.subckt AOI222D2BWP16P90LVT A1 A2 B1 B2 C1 C2 ZN VDD VSS
.ends
.subckt AOI222D2BWP20P90 A1 A2 B1 B2 C1 C2 ZN VDD VSS
.ends
.subckt AOI222D2BWP20P90LVT A1 A2 B1 B2 C1 C2 ZN VDD VSS
.ends
.subckt AOI222D4BWP16P90 A1 A2 B1 B2 C1 C2 ZN VDD VSS
.ends
.subckt AOI222D4BWP16P90LVT A1 A2 B1 B2 C1 C2 ZN VDD VSS
.ends
.subckt AOI222D4BWP20P90 A1 A2 B1 B2 C1 C2 ZN VDD VSS
.ends
.subckt AOI222D4BWP20P90LVT A1 A2 B1 B2 C1 C2 ZN VDD VSS
.ends
.subckt AOI22D1BWP16P90 A1 A2 B1 B2 ZN VDD VSS
.ends
.subckt AOI22D1BWP16P90LVT A1 A2 B1 B2 ZN VDD VSS
.ends
.subckt AOI22D1BWP20P90 A1 A2 B1 B2 ZN VDD VSS
.ends
.subckt AOI22D1BWP20P90LVT A1 A2 B1 B2 ZN VDD VSS
.ends
.subckt AOI22D2BWP16P90 A1 A2 B1 B2 ZN VDD VSS
.ends
.subckt AOI22D2BWP16P90LVT A1 A2 B1 B2 ZN VDD VSS
.ends
.subckt AOI22D2BWP20P90 A1 A2 B1 B2 ZN VDD VSS
.ends
.subckt AOI22D2BWP20P90LVT A1 A2 B1 B2 ZN VDD VSS
.ends
.subckt AOI22D4BWP16P90 A1 A2 B1 B2 ZN VDD VSS
.ends
.subckt AOI22D4BWP16P90LVT A1 A2 B1 B2 ZN VDD VSS
.ends
.subckt AOI22D4BWP20P90 A1 A2 B1 B2 ZN VDD VSS
.ends
.subckt AOI22D4BWP20P90LVT A1 A2 B1 B2 ZN VDD VSS
.ends
.subckt AOI22D8BWP16P90 A1 A2 B1 B2 ZN VDD VSS
.ends
.subckt AOI22D8BWP16P90LVT A1 A2 B1 B2 ZN VDD VSS
.ends
.subckt AOI22D8BWP20P90 A1 A2 B1 B2 ZN VDD VSS
.ends
.subckt AOI22D8BWP20P90LVT A1 A2 B1 B2 ZN VDD VSS
.ends
.subckt AOI31D1BWP16P90 A1 A2 A3 B ZN VDD VSS
.ends
.subckt AOI31D1BWP16P90LVT A1 A2 A3 B ZN VDD VSS
.ends
.subckt AOI31D1BWP20P90 A1 A2 A3 B ZN VDD VSS
.ends
.subckt AOI31D1BWP20P90LVT A1 A2 A3 B ZN VDD VSS
.ends
.subckt AOI31D2BWP16P90 A1 A2 A3 B ZN VDD VSS
.ends
.subckt AOI31D2BWP16P90LVT A1 A2 A3 B ZN VDD VSS
.ends
.subckt AOI31D2BWP20P90 A1 A2 A3 B ZN VDD VSS
.ends
.subckt AOI31D2BWP20P90LVT A1 A2 A3 B ZN VDD VSS
.ends
.subckt AOI31D4BWP16P90 A1 A2 A3 B ZN VDD VSS
.ends
.subckt AOI31D4BWP16P90LVT A1 A2 A3 B ZN VDD VSS
.ends
.subckt AOI31D4BWP20P90 A1 A2 A3 B ZN VDD VSS
.ends
.subckt AOI31D4BWP20P90LVT A1 A2 A3 B ZN VDD VSS
.ends
.subckt AOI32D1BWP16P90 A1 A2 A3 B1 B2 ZN VDD VSS
.ends
.subckt AOI32D1BWP16P90LVT A1 A2 A3 B1 B2 ZN VDD VSS
.ends
.subckt AOI32D1BWP20P90 A1 A2 A3 B1 B2 ZN VDD VSS
.ends
.subckt AOI32D1BWP20P90LVT A1 A2 A3 B1 B2 ZN VDD VSS
.ends
.subckt AOI32D2BWP16P90 A1 A2 A3 B1 B2 ZN VDD VSS
.ends
.subckt AOI32D2BWP16P90LVT A1 A2 A3 B1 B2 ZN VDD VSS
.ends
.subckt AOI32D2BWP20P90 A1 A2 A3 B1 B2 ZN VDD VSS
.ends
.subckt AOI32D2BWP20P90LVT A1 A2 A3 B1 B2 ZN VDD VSS
.ends
.subckt AOI32D4BWP16P90 A1 A2 A3 B1 B2 ZN VDD VSS
.ends
.subckt AOI32D4BWP16P90LVT A1 A2 A3 B1 B2 ZN VDD VSS
.ends
.subckt AOI32D4BWP20P90 A1 A2 A3 B1 B2 ZN VDD VSS
.ends
.subckt AOI32D4BWP20P90LVT A1 A2 A3 B1 B2 ZN VDD VSS
.ends
.subckt AOI33D1BWP16P90 A1 A2 A3 B1 B2 B3 ZN VDD VSS
.ends
.subckt AOI33D1BWP16P90LVT A1 A2 A3 B1 B2 B3 ZN VDD VSS
.ends
.subckt AOI33D1BWP20P90 A1 A2 A3 B1 B2 B3 ZN VDD VSS
.ends
.subckt AOI33D1BWP20P90LVT A1 A2 A3 B1 B2 B3 ZN VDD VSS
.ends
.subckt AOI33D2BWP16P90 A1 A2 A3 B1 B2 B3 ZN VDD VSS
.ends
.subckt AOI33D2BWP16P90LVT A1 A2 A3 B1 B2 B3 ZN VDD VSS
.ends
.subckt AOI33D2BWP20P90 A1 A2 A3 B1 B2 B3 ZN VDD VSS
.ends
.subckt AOI33D2BWP20P90LVT A1 A2 A3 B1 B2 B3 ZN VDD VSS
.ends
.subckt AOI33D4BWP16P90 A1 A2 A3 B1 B2 B3 ZN VDD VSS
.ends
.subckt AOI33D4BWP16P90LVT A1 A2 A3 B1 B2 B3 ZN VDD VSS
.ends
.subckt AOI33D4BWP20P90 A1 A2 A3 B1 B2 B3 ZN VDD VSS
.ends
.subckt AOI33D4BWP20P90LVT A1 A2 A3 B1 B2 B3 ZN VDD VSS
.ends
.subckt BOUNDARY_LEFTBWP16P90 VDD VSS
.ends
.subckt BOUNDARY_LEFTBWP16P90LVT VDD VSS
.ends
.subckt BOUNDARY_LEFTBWP20P90 VDD VSS
.ends
.subckt BOUNDARY_LEFTBWP20P90LVT VDD VSS
.ends
.subckt BOUNDARY_NCORNERBWP16P90 VDD VSS
.ends
.subckt BOUNDARY_NCORNERBWP16P90LVT VDD VSS
.ends
.subckt BOUNDARY_NCORNERBWP20P90 VDD VSS
.ends
.subckt BOUNDARY_NCORNERBWP20P90LVT VDD VSS
.ends
.subckt BOUNDARY_NROW1BWP16P90 VDD VSS
.ends
.subckt BOUNDARY_NROW1BWP16P90LVT VDD VSS
.ends
.subckt BOUNDARY_NROW1BWP20P90 VDD VSS
.ends
.subckt BOUNDARY_NROW1BWP20P90LVT VDD VSS
.ends
.subckt BOUNDARY_NROW2BWP16P90 VDD VSS
.ends
.subckt BOUNDARY_NROW2BWP16P90LVT VDD VSS
.ends
.subckt BOUNDARY_NROW2BWP20P90 VDD VSS
.ends
.subckt BOUNDARY_NROW2BWP20P90LVT VDD VSS
.ends
.subckt BOUNDARY_NROW3BWP16P90 VDD VSS
.ends
.subckt BOUNDARY_NROW3BWP16P90LVT VDD VSS
.ends
.subckt BOUNDARY_NROW3BWP20P90 VDD VSS
.ends
.subckt BOUNDARY_NROW3BWP20P90LVT VDD VSS
.ends
.subckt BOUNDARY_NROW4BWP16P90 VDD VSS
.ends
.subckt BOUNDARY_NROW4BWP16P90LVT VDD VSS
.ends
.subckt BOUNDARY_NROW4BWP20P90 VDD VSS
.ends
.subckt BOUNDARY_NROW4BWP20P90LVT VDD VSS
.ends
.subckt BOUNDARY_NTAPBWP16P90 VDD VSS
.ends
.subckt BOUNDARY_NTAPBWP16P90LVT VDD VSS
.ends
.subckt BOUNDARY_NTAPBWP16P90LVT_VPP_VBB VDD VSS
.ends
.subckt BOUNDARY_NTAPBWP16P90LVT_VPP_VSS VDD VSS
.ends
.subckt BOUNDARY_NTAPBWP16P90_VPP_VBB VDD VSS
.ends
.subckt BOUNDARY_NTAPBWP16P90_VPP_VSS VDD VSS
.ends
.subckt BOUNDARY_NTAPBWP20P90 VDD VSS
.ends
.subckt BOUNDARY_NTAPBWP20P90LVT VDD VSS
.ends
.subckt BOUNDARY_NTAPBWP20P90LVT_VPP_VBB VDD VSS
.ends
.subckt BOUNDARY_NTAPBWP20P90LVT_VPP_VSS VDD VSS
.ends
.subckt BOUNDARY_NTAPBWP20P90_VPP_VBB VDD VSS
.ends
.subckt BOUNDARY_NTAPBWP20P90_VPP_VSS VDD VSS
.ends
.subckt BOUNDARY_PCORNERBWP16P90 VDD VSS
.ends
.subckt BOUNDARY_PCORNERBWP16P90LVT VDD VSS
.ends
.subckt BOUNDARY_PCORNERBWP20P90 VDD VSS
.ends
.subckt BOUNDARY_PCORNERBWP20P90LVT VDD VSS
.ends
.subckt BOUNDARY_PROW1BWP16P90 VDD VSS
.ends
.subckt BOUNDARY_PROW1BWP16P90LVT VDD VSS
.ends
.subckt BOUNDARY_PROW1BWP20P90 VDD VSS
.ends
.subckt BOUNDARY_PROW1BWP20P90LVT VDD VSS
.ends
.subckt BOUNDARY_PROW2BWP16P90 VDD VSS
.ends
.subckt BOUNDARY_PROW2BWP16P90LVT VDD VSS
.ends
.subckt BOUNDARY_PROW2BWP20P90 VDD VSS
.ends
.subckt BOUNDARY_PROW2BWP20P90LVT VDD VSS
.ends
.subckt BOUNDARY_PROW3BWP16P90 VDD VSS
.ends
.subckt BOUNDARY_PROW3BWP16P90LVT VDD VSS
.ends
.subckt BOUNDARY_PROW3BWP20P90 VDD VSS
.ends
.subckt BOUNDARY_PROW3BWP20P90LVT VDD VSS
.ends
.subckt BOUNDARY_PROW4BWP16P90 VDD VSS
.ends
.subckt BOUNDARY_PROW4BWP16P90LVT VDD VSS
.ends
.subckt BOUNDARY_PROW4BWP20P90 VDD VSS
.ends
.subckt BOUNDARY_PROW4BWP20P90LVT VDD VSS
.ends
.subckt BOUNDARY_PTAPBWP16P90 VDD VSS
.ends
.subckt BOUNDARY_PTAPBWP16P90LVT VDD VSS
.ends
.subckt BOUNDARY_PTAPBWP16P90LVT_VPP_VBB VDD VSS
.ends
.subckt BOUNDARY_PTAPBWP16P90LVT_VPP_VSS VDD VSS
.ends
.subckt BOUNDARY_PTAPBWP16P90_VPP_VBB VDD VSS
.ends
.subckt BOUNDARY_PTAPBWP16P90_VPP_VSS VDD VSS
.ends
.subckt BOUNDARY_PTAPBWP20P90 VDD VSS
.ends
.subckt BOUNDARY_PTAPBWP20P90LVT VDD VSS
.ends
.subckt BOUNDARY_PTAPBWP20P90LVT_VPP_VBB VDD VSS
.ends
.subckt BOUNDARY_PTAPBWP20P90LVT_VPP_VSS VDD VSS
.ends
.subckt BOUNDARY_PTAPBWP20P90_VPP_VBB VDD VSS
.ends
.subckt BOUNDARY_PTAPBWP20P90_VPP_VSS VDD VSS
.ends
.subckt BOUNDARY_RIGHTBWP16P90 VDD VSS
.ends
.subckt BOUNDARY_RIGHTBWP16P90LVT VDD VSS
.ends
.subckt BOUNDARY_RIGHTBWP20P90 VDD VSS
.ends
.subckt BOUNDARY_RIGHTBWP20P90LVT VDD VSS
.ends
.subckt BUFFD12BWP16P90 I Z VDD VSS
.ends
.subckt BUFFD12BWP16P90LVT I Z VDD VSS
.ends
.subckt BUFFD12BWP20P90 I Z VDD VSS
.ends
.subckt BUFFD12BWP20P90LVT I Z VDD VSS
.ends
.subckt BUFFD16BWP16P90 I Z VDD VSS
.ends
.subckt BUFFD16BWP16P90LVT I Z VDD VSS
.ends
.subckt BUFFD16BWP20P90 I Z VDD VSS
.ends
.subckt BUFFD16BWP20P90LVT I Z VDD VSS
.ends
.subckt BUFFD1BWP16P90 I Z VDD VSS
.ends
.subckt BUFFD1BWP16P90LVT I Z VDD VSS
.ends
.subckt BUFFD1BWP20P90 I Z VDD VSS
.ends
.subckt BUFFD1BWP20P90LVT I Z VDD VSS
.ends
.subckt BUFFD2BWP16P90 I Z VDD VSS
.ends
.subckt BUFFD2BWP16P90LVT I Z VDD VSS
.ends
.subckt BUFFD2BWP20P90 I Z VDD VSS
.ends
.subckt BUFFD2BWP20P90LVT I Z VDD VSS
.ends
.subckt BUFFD4BWP16P90 I Z VDD VSS
.ends
.subckt BUFFD4BWP16P90LVT I Z VDD VSS
.ends
.subckt BUFFD4BWP20P90 I Z VDD VSS
.ends
.subckt BUFFD4BWP20P90LVT I Z VDD VSS
.ends
.subckt BUFFD8BWP16P90 I Z VDD VSS
.ends
.subckt BUFFD8BWP16P90LVT I Z VDD VSS
.ends
.subckt BUFFD8BWP20P90 I Z VDD VSS
.ends
.subckt BUFFD8BWP20P90LVT I Z VDD VSS
.ends
.subckt CKBD12BWP16P90 I Z VDD VSS
.ends
.subckt CKBD12BWP16P90LVT I Z VDD VSS
.ends
.subckt CKBD12BWP20P90 I Z VDD VSS
.ends
.subckt CKBD12BWP20P90LVT I Z VDD VSS
.ends
.subckt CKBD16BWP16P90 I Z VDD VSS
.ends
.subckt CKBD16BWP16P90LVT I Z VDD VSS
.ends
.subckt CKBD16BWP20P90 I Z VDD VSS
.ends
.subckt CKBD16BWP20P90LVT I Z VDD VSS
.ends
.subckt CKBD1BWP16P90 I Z VDD VSS
.ends
.subckt CKBD1BWP16P90LVT I Z VDD VSS
.ends
.subckt CKBD1BWP20P90 I Z VDD VSS
.ends
.subckt CKBD1BWP20P90LVT I Z VDD VSS
.ends
.subckt CKBD2BWP16P90 I Z VDD VSS
.ends
.subckt CKBD2BWP16P90LVT I Z VDD VSS
.ends
.subckt CKBD2BWP20P90 I Z VDD VSS
.ends
.subckt CKBD2BWP20P90LVT I Z VDD VSS
.ends
.subckt CKBD4BWP16P90 I Z VDD VSS
.ends
.subckt CKBD4BWP16P90LVT I Z VDD VSS
.ends
.subckt CKBD4BWP20P90 I Z VDD VSS
.ends
.subckt CKBD4BWP20P90LVT I Z VDD VSS
.ends
.subckt CKBD8BWP16P90 I Z VDD VSS
.ends
.subckt CKBD8BWP16P90LVT I Z VDD VSS
.ends
.subckt CKBD8BWP20P90 I Z VDD VSS
.ends
.subckt CKBD8BWP20P90LVT I Z VDD VSS
.ends
.subckt CKLNQD12BWP16P90 TE E CP Q VDD VSS
.ends
.subckt CKLNQD12BWP16P90LVT TE E CP Q VDD VSS
.ends
.subckt CKLNQD12BWP20P90 TE E CP Q VDD VSS
.ends
.subckt CKLNQD12BWP20P90LVT TE E CP Q VDD VSS
.ends
.subckt CKLNQD1BWP16P90 TE E CP Q VDD VSS
.ends
.subckt CKLNQD1BWP16P90LVT TE E CP Q VDD VSS
.ends
.subckt CKLNQD1BWP20P90 TE E CP Q VDD VSS
.ends
.subckt CKLNQD1BWP20P90LVT TE E CP Q VDD VSS
.ends
.subckt CKLNQD2BWP16P90 TE E CP Q VDD VSS
.ends
.subckt CKLNQD2BWP16P90LVT TE E CP Q VDD VSS
.ends
.subckt CKLNQD2BWP20P90 TE E CP Q VDD VSS
.ends
.subckt CKLNQD2BWP20P90LVT TE E CP Q VDD VSS
.ends
.subckt CKLNQD4BWP16P90 TE E CP Q VDD VSS
.ends
.subckt CKLNQD4BWP16P90LVT TE E CP Q VDD VSS
.ends
.subckt CKLNQD4BWP20P90 TE E CP Q VDD VSS
.ends
.subckt CKLNQD4BWP20P90LVT TE E CP Q VDD VSS
.ends
.subckt CKLNQD8BWP16P90 TE E CP Q VDD VSS
.ends
.subckt CKLNQD8BWP16P90LVT TE E CP Q VDD VSS
.ends
.subckt CKLNQD8BWP20P90 TE E CP Q VDD VSS
.ends
.subckt CKLNQD8BWP20P90LVT TE E CP Q VDD VSS
.ends
.subckt CKMUX2D1BWP16P90 I0 I1 S Z VDD VSS
.ends
.subckt CKMUX2D1BWP16P90LVT I0 I1 S Z VDD VSS
.ends
.subckt CKMUX2D1BWP20P90 I0 I1 S Z VDD VSS
.ends
.subckt CKMUX2D1BWP20P90LVT I0 I1 S Z VDD VSS
.ends
.subckt CKMUX2D2BWP16P90 I0 I1 S Z VDD VSS
.ends
.subckt CKMUX2D2BWP16P90LVT I0 I1 S Z VDD VSS
.ends
.subckt CKMUX2D2BWP20P90 I0 I1 S Z VDD VSS
.ends
.subckt CKMUX2D2BWP20P90LVT I0 I1 S Z VDD VSS
.ends
.subckt CKMUX2D4BWP16P90 I0 I1 S Z VDD VSS
.ends
.subckt CKMUX2D4BWP16P90LVT I0 I1 S Z VDD VSS
.ends
.subckt CKMUX2D4BWP20P90 I0 I1 S Z VDD VSS
.ends
.subckt CKMUX2D4BWP20P90LVT I0 I1 S Z VDD VSS
.ends
.subckt CKMUX2D8BWP16P90 I0 I1 S Z VDD VSS
.ends
.subckt CKMUX2D8BWP16P90LVT I0 I1 S Z VDD VSS
.ends
.subckt CKMUX2D8BWP20P90 I0 I1 S Z VDD VSS
.ends
.subckt CKMUX2D8BWP20P90LVT I0 I1 S Z VDD VSS
.ends
.subckt CKND12BWP16P90 I ZN VDD VSS
.ends
.subckt CKND12BWP16P90LVT I ZN VDD VSS
.ends
.subckt CKND12BWP20P90 I ZN VDD VSS
.ends
.subckt CKND12BWP20P90LVT I ZN VDD VSS
.ends
.subckt CKND16BWP16P90 I ZN VDD VSS
.ends
.subckt CKND16BWP16P90LVT I ZN VDD VSS
.ends
.subckt CKND16BWP20P90 I ZN VDD VSS
.ends
.subckt CKND16BWP20P90LVT I ZN VDD VSS
.ends
.subckt CKND1BWP16P90 I ZN VDD VSS
.ends
.subckt CKND1BWP16P90LVT I ZN VDD VSS
.ends
.subckt CKND1BWP20P90 I ZN VDD VSS
.ends
.subckt CKND1BWP20P90LVT I ZN VDD VSS
.ends
.subckt CKND2BWP16P90 I ZN VDD VSS
.ends
.subckt CKND2BWP16P90LVT I ZN VDD VSS
.ends
.subckt CKND2BWP20P90 I ZN VDD VSS
.ends
.subckt CKND2BWP20P90LVT I ZN VDD VSS
.ends
.subckt CKND2D1BWP16P90 A1 A2 ZN VDD VSS
.ends
.subckt CKND2D1BWP16P90LVT A1 A2 ZN VDD VSS
.ends
.subckt CKND2D1BWP20P90 A1 A2 ZN VDD VSS
.ends
.subckt CKND2D1BWP20P90LVT A1 A2 ZN VDD VSS
.ends
.subckt CKND2D2BWP16P90 A1 A2 ZN VDD VSS
.ends
.subckt CKND2D2BWP16P90LVT A1 A2 ZN VDD VSS
.ends
.subckt CKND2D2BWP20P90 A1 A2 ZN VDD VSS
.ends
.subckt CKND2D2BWP20P90LVT A1 A2 ZN VDD VSS
.ends
.subckt CKND2D4BWP16P90 A1 A2 ZN VDD VSS
.ends
.subckt CKND2D4BWP16P90LVT A1 A2 ZN VDD VSS
.ends
.subckt CKND2D4BWP20P90 A1 A2 ZN VDD VSS
.ends
.subckt CKND2D4BWP20P90LVT A1 A2 ZN VDD VSS
.ends
.subckt CKND2D8BWP16P90 A1 A2 ZN VDD VSS
.ends
.subckt CKND2D8BWP16P90LVT A1 A2 ZN VDD VSS
.ends
.subckt CKND2D8BWP20P90 A1 A2 ZN VDD VSS
.ends
.subckt CKND2D8BWP20P90LVT A1 A2 ZN VDD VSS
.ends
.subckt CKND4BWP16P90 I ZN VDD VSS
.ends
.subckt CKND4BWP16P90LVT I ZN VDD VSS
.ends
.subckt CKND4BWP20P90 I ZN VDD VSS
.ends
.subckt CKND4BWP20P90LVT I ZN VDD VSS
.ends
.subckt CKND8BWP16P90 I ZN VDD VSS
.ends
.subckt CKND8BWP16P90LVT I ZN VDD VSS
.ends
.subckt CKND8BWP20P90 I ZN VDD VSS
.ends
.subckt CKND8BWP20P90LVT I ZN VDD VSS
.ends
.subckt CKNR2D1BWP16P90 A1 A2 ZN VDD VSS
.ends
.subckt CKNR2D1BWP16P90LVT A1 A2 ZN VDD VSS
.ends
.subckt CKNR2D1BWP20P90 A1 A2 ZN VDD VSS
.ends
.subckt CKNR2D1BWP20P90LVT A1 A2 ZN VDD VSS
.ends
.subckt CKNR2D2BWP16P90 A1 A2 ZN VDD VSS
.ends
.subckt CKNR2D2BWP16P90LVT A1 A2 ZN VDD VSS
.ends
.subckt CKNR2D2BWP20P90 A1 A2 ZN VDD VSS
.ends
.subckt CKNR2D2BWP20P90LVT A1 A2 ZN VDD VSS
.ends
.subckt CKNR2D4BWP16P90 A1 A2 ZN VDD VSS
.ends
.subckt CKNR2D4BWP16P90LVT A1 A2 ZN VDD VSS
.ends
.subckt CKNR2D4BWP20P90 A1 A2 ZN VDD VSS
.ends
.subckt CKNR2D4BWP20P90LVT A1 A2 ZN VDD VSS
.ends
.subckt CKNR2D8BWP16P90 A1 A2 ZN VDD VSS
.ends
.subckt CKNR2D8BWP16P90LVT A1 A2 ZN VDD VSS
.ends
.subckt CKNR2D8BWP20P90 A1 A2 ZN VDD VSS
.ends
.subckt CKNR2D8BWP20P90LVT A1 A2 ZN VDD VSS
.ends
.subckt CKOR2D1BWP16P90 A1 A2 Z VDD VSS
.ends
.subckt CKOR2D1BWP16P90LVT A1 A2 Z VDD VSS
.ends
.subckt CKOR2D1BWP20P90 A1 A2 Z VDD VSS
.ends
.subckt CKOR2D1BWP20P90LVT A1 A2 Z VDD VSS
.ends
.subckt CKOR2D2BWP16P90 A1 A2 Z VDD VSS
.ends
.subckt CKOR2D2BWP16P90LVT A1 A2 Z VDD VSS
.ends
.subckt CKOR2D2BWP20P90 A1 A2 Z VDD VSS
.ends
.subckt CKOR2D2BWP20P90LVT A1 A2 Z VDD VSS
.ends
.subckt CKOR2D4BWP16P90 A1 A2 Z VDD VSS
.ends
.subckt CKOR2D4BWP16P90LVT A1 A2 Z VDD VSS
.ends
.subckt CKOR2D4BWP20P90 A1 A2 Z VDD VSS
.ends
.subckt CKOR2D4BWP20P90LVT A1 A2 Z VDD VSS
.ends
.subckt CKOR2D8BWP16P90 A1 A2 Z VDD VSS
.ends
.subckt CKOR2D8BWP16P90LVT A1 A2 Z VDD VSS
.ends
.subckt CKOR2D8BWP20P90 A1 A2 Z VDD VSS
.ends
.subckt CKOR2D8BWP20P90LVT A1 A2 Z VDD VSS
.ends
.subckt DCAP16BWP16P90 VDD VSS 8 9
.ends
.subckt DCAP16BWP16P90LVT VDD VSS 8 9
.ends
.subckt DCAP16BWP20P90 VDD VSS 8 9
.ends
.subckt DCAP16BWP20P90LVT VDD VSS 8 9
.ends
.subckt DCAP32BWP16P90 VDD VSS 8 9
.ends
.subckt DCAP32BWP16P90LVT VDD VSS 8 9
.ends
.subckt DCAP32BWP20P90 VDD VSS 8 9
.ends
.subckt DCAP32BWP20P90LVT VDD VSS 8 9
.ends
.subckt DCAP4BWP16P90 VDD VSS 8 9
.ends
.subckt DCAP4BWP16P90LVT VDD VSS 8 9
.ends
.subckt DCAP4BWP20P90 VDD VSS 8 9
.ends
.subckt DCAP4BWP20P90LVT VDD VSS 8 9
.ends
.subckt DCAP64BWP16P90 VDD VSS 8 9
.ends
.subckt DCAP64BWP16P90LVT VDD VSS 8 9
.ends
.subckt DCAP64BWP20P90 VDD VSS 8 9
.ends
.subckt DCAP64BWP20P90LVT VDD VSS 8 9
.ends
.subckt DCAP8BWP16P90 VDD VSS 8 9
.ends
.subckt DCAP8BWP16P90LVT VDD VSS 8 9
.ends
.subckt DCAP8BWP20P90 VDD VSS 8 9
.ends
.subckt DCAP8BWP20P90LVT VDD VSS 8 9
.ends
.subckt DEL025D1BWP16P90 I Z VDD VSS
.ends
.subckt DEL025D1BWP16P90LVT I Z VDD VSS
.ends
.subckt DEL025D1BWP20P90 I Z VDD VSS
.ends
.subckt DEL025D1BWP20P90LVT I Z VDD VSS
.ends
.subckt DEL050D1BWP16P90 I Z VDD VSS
.ends
.subckt DEL050D1BWP16P90LVT I Z VDD VSS
.ends
.subckt DEL050D1BWP20P90 I Z VDD VSS
.ends
.subckt DEL050D1BWP20P90LVT I Z VDD VSS
.ends
.subckt DEL075D1BWP16P90 I Z VDD VSS
.ends
.subckt DEL075D1BWP16P90LVT I Z VDD VSS
.ends
.subckt DEL075D1BWP20P90 I Z VDD VSS
.ends
.subckt DEL075D1BWP20P90LVT I Z VDD VSS
.ends
.subckt DFCNQD1BWP16P90 D CP CDN Q VDD VSS
.ends
.subckt DFCNQD1BWP16P90LVT D CP CDN Q VDD VSS
.ends
.subckt DFCNQD1BWP20P90 D CP CDN Q VDD VSS
.ends
.subckt DFCNQD1BWP20P90LVT D CP CDN Q VDD VSS
.ends
.subckt DFCNQD2BWP16P90 D CP CDN Q VDD VSS
.ends
.subckt DFCNQD2BWP16P90LVT D CP CDN Q VDD VSS
.ends
.subckt DFCNQD2BWP20P90 D CP CDN Q VDD VSS
.ends
.subckt DFCNQD2BWP20P90LVT D CP CDN Q VDD VSS
.ends
.subckt DFCNQND1BWP16P90 D CP CDN QN VDD VSS
.ends
.subckt DFCNQND1BWP16P90LVT D CP CDN QN VDD VSS
.ends
.subckt DFCNQND1BWP20P90 D CP CDN QN VDD VSS
.ends
.subckt DFCNQND1BWP20P90LVT D CP CDN QN VDD VSS
.ends
.subckt DFCNQND2BWP16P90 D CP CDN QN VDD VSS
.ends
.subckt DFCNQND2BWP16P90LVT D CP CDN QN VDD VSS
.ends
.subckt DFCNQND2BWP20P90 D CP CDN QN VDD VSS
.ends
.subckt DFCNQND2BWP20P90LVT D CP CDN QN VDD VSS
.ends
.subckt DFNQD1BWP16P90 D CPN Q VDD VSS
.ends
.subckt DFNQD1BWP16P90LVT D CPN Q VDD VSS
.ends
.subckt DFNQD1BWP20P90 D CPN Q VDD VSS
.ends
.subckt DFNQD1BWP20P90LVT D CPN Q VDD VSS
.ends
.subckt DFNQD2BWP16P90 D CPN Q VDD VSS
.ends
.subckt DFNQD2BWP16P90LVT D CPN Q VDD VSS
.ends
.subckt DFNQD2BWP20P90 D CPN Q VDD VSS
.ends
.subckt DFNQD2BWP20P90LVT D CPN Q VDD VSS
.ends
.subckt DFQD1BWP16P90 D CP Q VDD VSS
.ends
.subckt DFQD1BWP16P90LVT D CP Q VDD VSS
.ends
.subckt DFQD1BWP20P90 D CP Q VDD VSS
.ends
.subckt DFQD1BWP20P90LVT D CP Q VDD VSS
.ends
.subckt DFQD2BWP16P90 D CP Q VDD VSS
.ends
.subckt DFQD2BWP16P90LVT D CP Q VDD VSS
.ends
.subckt DFQD2BWP20P90 D CP Q VDD VSS
.ends
.subckt DFQD2BWP20P90LVT D CP Q VDD VSS
.ends
.subckt FA1D1BWP16P90 A B CI S CO VDD VSS
.ends
.subckt FA1D1BWP16P90LVT A B CI S CO VDD VSS
.ends
.subckt FA1D1BWP20P90 A B CI S CO VDD VSS
.ends
.subckt FA1D1BWP20P90LVT A B CI S CO VDD VSS
.ends
.subckt FA1D2BWP16P90 A B CI S CO VDD VSS
.ends
.subckt FA1D2BWP16P90LVT A B CI S CO VDD VSS
.ends
.subckt FA1D2BWP20P90 A B CI S CO VDD VSS
.ends
.subckt FA1D2BWP20P90LVT A B CI S CO VDD VSS
.ends
.subckt FA1D4BWP16P90 A B CI S CO VDD VSS
.ends
.subckt FA1D4BWP16P90LVT A B CI S CO VDD VSS
.ends
.subckt FA1D4BWP20P90 A B CI S CO VDD VSS
.ends
.subckt FA1D4BWP20P90LVT A B CI S CO VDD VSS
.ends
.subckt FILL16BWP16P90 VDD VSS
.ends
.subckt FILL16BWP16P90LVT VDD VSS
.ends
.subckt FILL16BWP20P90 VDD VSS
.ends
.subckt FILL16BWP20P90LVT VDD VSS
.ends
.subckt FILL1BWP16P90 VDD VSS
.ends
.subckt FILL1BWP16P90LVT VDD VSS
.ends
.subckt FILL1BWP20P90 VDD VSS
.ends
.subckt FILL1BWP20P90LVT VDD VSS
.ends
.subckt FILL2BWP16P90 VDD VSS
.ends
.subckt FILL2BWP16P90LVT VDD VSS
.ends
.subckt FILL2BWP20P90 VDD VSS
.ends
.subckt FILL2BWP20P90LVT VDD VSS
.ends
.subckt FILL32BWP16P90 VDD VSS
.ends
.subckt FILL32BWP16P90LVT VDD VSS
.ends
.subckt FILL32BWP20P90 VDD VSS
.ends
.subckt FILL32BWP20P90LVT VDD VSS
.ends
.subckt FILL3BWP16P90 VDD VSS
.ends
.subckt FILL3BWP16P90LVT VDD VSS
.ends
.subckt FILL3BWP20P90 VDD VSS
.ends
.subckt FILL3BWP20P90LVT VDD VSS
.ends
.subckt FILL4BWP16P90 VDD VSS
.ends
.subckt FILL4BWP16P90LVT VDD VSS
.ends
.subckt FILL4BWP20P90 VDD VSS
.ends
.subckt FILL4BWP20P90LVT VDD VSS
.ends
.subckt FILL64BWP16P90 VDD VSS
.ends
.subckt FILL64BWP16P90LVT VDD VSS
.ends
.subckt FILL64BWP20P90 VDD VSS
.ends
.subckt FILL64BWP20P90LVT VDD VSS
.ends
.subckt FILL8BWP16P90 VDD VSS
.ends
.subckt FILL8BWP16P90LVT VDD VSS
.ends
.subckt FILL8BWP20P90 VDD VSS
.ends
.subckt FILL8BWP20P90LVT VDD VSS
.ends
.subckt GBUFFMCOD1BWP16P90 I Z VDD VSS
.ends
.subckt GBUFFMCOD1BWP16P90LVT I Z VDD VSS
.ends
.subckt GBUFFMCOD1BWP20P90 I Z VDD VSS
.ends
.subckt GBUFFMCOD1BWP20P90LVT I Z VDD VSS
.ends
.subckt GBUFFMCOD2BWP16P90 I Z VDD VSS
.ends
.subckt GBUFFMCOD2BWP16P90LVT I Z VDD VSS
.ends
.subckt GBUFFMCOD2BWP20P90 I Z VDD VSS
.ends
.subckt GBUFFMCOD2BWP20P90LVT I Z VDD VSS
.ends
.subckt GBUFFMCOD4BWP16P90 I Z VDD VSS
.ends
.subckt GBUFFMCOD4BWP16P90LVT I Z VDD VSS
.ends
.subckt GBUFFMCOD4BWP20P90 I Z VDD VSS
.ends
.subckt GBUFFMCOD4BWP20P90LVT I Z VDD VSS
.ends
.subckt GBUFFMCOD8BWP16P90 I Z VDD VSS
.ends
.subckt GBUFFMCOD8BWP16P90LVT I Z VDD VSS
.ends
.subckt GBUFFMCOD8BWP20P90 I Z VDD VSS
.ends
.subckt GBUFFMCOD8BWP20P90LVT I Z VDD VSS
.ends
.subckt GDCAP10MCOBWP16P90 VDD VSS
.ends
.subckt GDCAP10MCOBWP16P90LVT VDD VSS
.ends
.subckt GDCAP10MCOBWP20P90 VDD VSS
.ends
.subckt GDCAP10MCOBWP20P90LVT VDD VSS
.ends
.subckt GDCAP11MCOBWP16P90 VDD VSS
.ends
.subckt GDCAP11MCOBWP16P90LVT VDD VSS
.ends
.subckt GDCAP11MCOBWP20P90 VDD VSS
.ends
.subckt GDCAP11MCOBWP20P90LVT VDD VSS
.ends
.subckt GDCAP12MCOBWP16P90 VDD VSS
.ends
.subckt GDCAP12MCOBWP16P90LVT VDD VSS
.ends
.subckt GDCAP12MCOBWP20P90 VDD VSS
.ends
.subckt GDCAP12MCOBWP20P90LVT VDD VSS
.ends
.subckt GDCAP1MCOBWP16P90 VDD VSS
.ends
.subckt GDCAP1MCOBWP16P90LVT VDD VSS
.ends
.subckt GDCAP1MCOBWP20P90 VDD VSS
.ends
.subckt GDCAP1MCOBWP20P90LVT VDD VSS
.ends
.subckt GDCAP2MCOBWP16P90 VDD VSS
.ends
.subckt GDCAP2MCOBWP16P90LVT VDD VSS
.ends
.subckt GDCAP2MCOBWP20P90 VDD VSS
.ends
.subckt GDCAP2MCOBWP20P90LVT VDD VSS
.ends
.subckt GDCAP3MCOBWP16P90 VDD VSS
.ends
.subckt GDCAP3MCOBWP16P90LVT VDD VSS
.ends
.subckt GDCAP3MCOBWP20P90 VDD VSS
.ends
.subckt GDCAP3MCOBWP20P90LVT VDD VSS
.ends
.subckt GDCAP4MCOBWP16P90 VDD VSS
.ends
.subckt GDCAP4MCOBWP16P90LVT VDD VSS
.ends
.subckt GDCAP4MCOBWP20P90 VDD VSS
.ends
.subckt GDCAP4MCOBWP20P90LVT VDD VSS
.ends
.subckt GDCAP5MCOBWP16P90 VDD VSS
.ends
.subckt GDCAP5MCOBWP16P90LVT VDD VSS
.ends
.subckt GDCAP5MCOBWP20P90 VDD VSS
.ends
.subckt GDCAP5MCOBWP20P90LVT VDD VSS
.ends
.subckt GDCAP6MCOBWP16P90 VDD VSS
.ends
.subckt GDCAP6MCOBWP16P90LVT VDD VSS
.ends
.subckt GDCAP6MCOBWP20P90 VDD VSS
.ends
.subckt GDCAP6MCOBWP20P90LVT VDD VSS
.ends
.subckt GDCAP8MCOBWP16P90 VDD VSS
.ends
.subckt GDCAP8MCOBWP16P90LVT VDD VSS
.ends
.subckt GDCAP8MCOBWP20P90 VDD VSS
.ends
.subckt GDCAP8MCOBWP20P90LVT VDD VSS
.ends
.subckt GDCAP9MCOBWP16P90 VDD VSS
.ends
.subckt GDCAP9MCOBWP16P90LVT VDD VSS
.ends
.subckt GDCAP9MCOBWP20P90 VDD VSS
.ends
.subckt GDCAP9MCOBWP20P90LVT VDD VSS
.ends
.subckt GFILL10MCOBWP16P90 VDD VSS
.ends
.subckt GFILL10MCOBWP16P90LVT VDD VSS
.ends
.subckt GFILL10MCOBWP20P90 VDD VSS
.ends
.subckt GFILL10MCOBWP20P90LVT VDD VSS
.ends
.subckt GFILL11MCOBWP16P90 VDD VSS
.ends
.subckt GFILL11MCOBWP16P90LVT VDD VSS
.ends
.subckt GFILL11MCOBWP20P90 VDD VSS
.ends
.subckt GFILL11MCOBWP20P90LVT VDD VSS
.ends
.subckt GFILL12MCOBWP16P90 VDD VSS
.ends
.subckt GFILL12MCOBWP16P90LVT VDD VSS
.ends