.GLOBAL VDD VSS
* SPICE NETLIST
***************************************

*.CALIBRE ABORT_INFO SOFTCHK
.SUBCKT ndio_18_mac PLUS MINUS
.ENDS
***************************************
.SUBCKT ndio_mac PLUS MINUS
.ENDS
***************************************
.SUBCKT nmoscap_18 PLUS MINUS
.ENDS
***************************************
.SUBCKT npode_18_mac S G B
.ENDS
***************************************
.SUBCKT npode_lvt_mac S G B
.ENDS
***************************************
.SUBCKT npode_svt_mac S G B
.ENDS
***************************************
.SUBCKT pdio_18_mac PLUS MINUS
.ENDS
***************************************
.SUBCKT pdio_mac PLUS MINUS
.ENDS
***************************************
.SUBCKT ppode_18_mac S G B
.ENDS
***************************************
.SUBCKT ppode_lvt_mac S G B
.ENDS
***************************************
.SUBCKT ppode_svt_mac S G B
.ENDS
***************************************
.SUBCKT rhim PLUS MINUS
.ENDS
***************************************
.SUBCKT rm10w PLUS MINUS
.ENDS
***************************************
.SUBCKT rm11w PLUS MINUS
.ENDS
***************************************
.SUBCKT rm1w PLUS MINUS
.ENDS
***************************************
.SUBCKT rm2w PLUS MINUS
.ENDS
***************************************
.SUBCKT rm3w PLUS MINUS
.ENDS
***************************************
.SUBCKT rm4w PLUS MINUS
.ENDS
***************************************
.SUBCKT rm5w PLUS MINUS
.ENDS
***************************************
.SUBCKT rm6w PLUS MINUS
.ENDS
***************************************
.SUBCKT rm7w PLUS MINUS
.ENDS
***************************************
.SUBCKT rm8w PLUS MINUS
.ENDS
***************************************
.SUBCKT rm9w PLUS MINUS
.ENDS
***************************************
.SUBCKT rmap PLUS MINUS
.ENDS
***************************************
.SUBCKT ICV_1
** N=613 EP=0 IP=0 FDC=0
.ENDS
***************************************
.SUBCKT ICV_2
** N=474 EP=0 IP=0 FDC=0
.ENDS
***************************************
.SUBCKT ICV_3
** N=236 EP=0 IP=0 FDC=0
.ENDS
***************************************
.SUBCKT ICV_4
** N=234 EP=0 IP=0 FDC=0
.ENDS
***************************************
.SUBCKT ICV_5
** N=375 EP=0 IP=0 FDC=0
.ENDS
***************************************
.SUBCKT ICV_6
** N=453 EP=0 IP=0 FDC=0
.ENDS
***************************************
.SUBCKT ICV_7
** N=248 EP=0 IP=0 FDC=0
.ENDS
***************************************
.SUBCKT ICV_8
** N=264 EP=0 IP=0 FDC=0
.ENDS
***************************************
.SUBCKT ICV_9
** N=280 EP=0 IP=0 FDC=0
.ENDS
***************************************
.SUBCKT ICV_10
** N=454 EP=0 IP=0 FDC=0
.ENDS
***************************************
.SUBCKT ICV_11
** N=2402 EP=0 IP=0 FDC=0
.ENDS
***************************************
.SUBCKT BOUNDARY_NCORNERBWP16P90LVT VSS VDD
** N=14 EP=2 IP=0 FDC=0
.ENDS
***************************************
.SUBCKT BOUNDARY_RIGHTBWP16P90LVT VSS VDD
** N=14 EP=2 IP=0 FDC=0
.ENDS
***************************************
.SUBCKT BOUNDARY_NROW2BWP16P90LVT VSS VDD
** N=11 EP=2 IP=0 FDC=0
.ENDS
***************************************
.SUBCKT FILL3BWP16P90 VSS VDD
** N=14 EP=2 IP=0 FDC=0
.ENDS
***************************************
.SUBCKT BOUNDARY_NROW4BWP16P90LVT VSS VDD
** N=16 EP=2 IP=0 FDC=0
.ENDS
***************************************
.SUBCKT FILL2BWP16P90 VSS VDD
** N=11 EP=2 IP=0 FDC=0
.ENDS
***************************************
.SUBCKT DCAP8BWP16P90 VSS VDD 7
** N=14 EP=3 IP=0 FDC=16
M0 8 11 VSS 7 nch_svt_mac L=1.6e-08 nfin=4 $X=1270 $Y=670 $D=7
M1 9 11 8 7 nch_svt_mac L=1.6e-08 nfin=4 $X=2170 $Y=670 $D=7
M2 10 11 9 7 nch_svt_mac L=1.6e-08 nfin=4 $X=3070 $Y=670 $D=7
M3 11 11 10 7 nch_svt_mac L=1.6e-08 nfin=4 $X=3970 $Y=670 $D=7
M4 VSS 12 11 7 nch_svt_mac L=1.6e-08 nfin=4 $X=4870 $Y=670 $D=7
M5 11 12 VSS 7 nch_svt_mac L=1.6e-08 nfin=4 $X=5770 $Y=670 $D=7
M6 VDD 11 12 VDD pch_svt_mac L=1.6e-08 nfin=4 $X=1270 $Y=3550 $D=12
M7 VDD 11 VDD VDD pch_svt_mac L=1.6e-08 nfin=4 $X=2170 $Y=3550 $D=12
M8 VDD 11 VDD VDD pch_svt_mac L=1.6e-08 nfin=4 $X=3070 $Y=3550 $D=12
M9 VDD 11 VDD VDD pch_svt_mac L=1.6e-08 nfin=4 $X=3970 $Y=3550 $D=12
M10 VDD 12 VDD VDD pch_svt_mac L=1.6e-08 nfin=4 $X=4870 $Y=3550 $D=12
M11 VDD 12 VDD VDD pch_svt_mac L=1.6e-08 nfin=4 $X=5770 $Y=3550 $D=12
X12 VSS 13 7 npode_svt_mac nfin=4 l=1.6e-08 $X=530 $Y=670 $D=20
X13 11 14 7 npode_svt_mac nfin=4 l=1.6e-08 $X=6660 $Y=670 $D=20
X14 12 13 VDD ppode_svt_mac nfin=4 l=1.6e-08 $X=530 $Y=3550 $D=25
X15 VDD 14 VDD ppode_svt_mac nfin=4 l=1.6e-08 $X=6660 $Y=3550 $D=25
.ENDS
***************************************
.SUBCKT DCAP4BWP16P90 VSS VDD 7
** N=11 EP=3 IP=0 FDC=8
M0 VSS 8 VSS 7 nch_svt_mac L=1.6e-08 nfin=4 $X=1270 $Y=670 $D=7
M1 8 9 VSS 7 nch_svt_mac L=1.6e-08 nfin=4 $X=2170 $Y=670 $D=7
M2 VDD 8 9 VDD pch_svt_mac L=1.6e-08 nfin=4 $X=1270 $Y=3550 $D=12
M3 VDD 9 VDD VDD pch_svt_mac L=1.6e-08 nfin=4 $X=2170 $Y=3550 $D=12
X4 VSS 10 7 npode_svt_mac nfin=4 l=1.6e-08 $X=530 $Y=670 $D=20
X5 8 11 7 npode_svt_mac nfin=4 l=1.6e-08 $X=3060 $Y=670 $D=20
X6 9 10 VDD ppode_svt_mac nfin=4 l=1.6e-08 $X=530 $Y=3550 $D=25
X7 VDD 11 VDD ppode_svt_mac nfin=4 l=1.6e-08 $X=3060 $Y=3550 $D=25
.ENDS
***************************************
.SUBCKT ICV_12 1 2 3 4 5 6 7
*.CALIBRE ICV_CELL 9
** N=9 EP=7 IP=14 FDC=24
X0 VSS VDD 7 DCAP8BWP16P90 $T=0 0 0 0 $X=-1200 $Y=-720
X1 VSS VDD 7 DCAP4BWP16P90 $T=7200 0 0 0 $X=6000 $Y=-720
.ENDS
***************************************
.SUBCKT ICV_13 1 2 3 4 5
*.CALIBRE ICV_CELL 9
** N=9 EP=5 IP=19 FDC=24
X0 VSS VDD BOUNDARY_RIGHTBWP16P90LVT $T=12600 0 0 0 $X=11400 $Y=-720
X1 VSS VDD FILL2BWP16P90 $T=10800 0 0 0 $X=9600 $Y=-720
X2 3 4 VSS VDD 8 9 5 ICV_12 $T=0 0 0 0 $X=-1200 $Y=-720
.ENDS
***************************************
.SUBCKT DCAP16BWP16P90 VSS VDD 7
** N=22 EP=3 IP=0 FDC=32
M0 8 19 VSS 7 nch_svt_mac L=1.6e-08 nfin=4 $X=1270 $Y=670 $D=7
M1 9 19 8 7 nch_svt_mac L=1.6e-08 nfin=4 $X=2170 $Y=670 $D=7
M2 10 19 9 7 nch_svt_mac L=1.6e-08 nfin=4 $X=3070 $Y=670 $D=7
M3 11 19 10 7 nch_svt_mac L=1.6e-08 nfin=4 $X=3970 $Y=670 $D=7
M4 12 19 11 7 nch_svt_mac L=1.6e-08 nfin=4 $X=4870 $Y=670 $D=7
M5 13 19 12 7 nch_svt_mac L=1.6e-08 nfin=4 $X=5770 $Y=670 $D=7
M6 14 19 13 7 nch_svt_mac L=1.6e-08 nfin=4 $X=6670 $Y=670 $D=7
M7 15 19 14 7 nch_svt_mac L=1.6e-08 nfin=4 $X=7570 $Y=670 $D=7
M8 16 19 15 7 nch_svt_mac L=1.6e-08 nfin=4 $X=8470 $Y=670 $D=7
M9 17 19 16 7 nch_svt_mac L=1.6e-08 nfin=4 $X=9370 $Y=670 $D=7
M10 18 19 17 7 nch_svt_mac L=1.6e-08 nfin=4 $X=10270 $Y=670 $D=7
M11 19 19 18 7 nch_svt_mac L=1.6e-08 nfin=4 $X=11170 $Y=670 $D=7
M12 VSS 20 19 7 nch_svt_mac L=1.6e-08 nfin=4 $X=12070 $Y=670 $D=7
M13 19 20 VSS 7 nch_svt_mac L=1.6e-08 nfin=4 $X=12970 $Y=670 $D=7
M14 VDD 19 20 VDD pch_svt_mac L=1.6e-08 nfin=4 $X=1270 $Y=3550 $D=12
M15 VDD 19 VDD VDD pch_svt_mac L=1.6e-08 nfin=4 $X=2170 $Y=3550 $D=12
M16 VDD 19 VDD VDD pch_svt_mac L=1.6e-08 nfin=4 $X=3070 $Y=3550 $D=12
M17 VDD 19 VDD VDD pch_svt_mac L=1.6e-08 nfin=4 $X=3970 $Y=3550 $D=12
M18 VDD 19 VDD VDD pch_svt_mac L=1.6e-08 nfin=4 $X=4870 $Y=3550 $D=12
M19 VDD 19 VDD VDD pch_svt_mac L=1.6e-08 nfin=4 $X=5770 $Y=3550 $D=12
M20 VDD 19 VDD VDD pch_svt_mac L=1.6e-08 nfin=4 $X=6670 $Y=3550 $D=12
M21 VDD 19 VDD VDD pch_svt_mac L=1.6e-08 nfin=4 $X=7570 $Y=3550 $D=12
M22 VDD 19 VDD VDD pch_svt_mac L=1.6e-08 nfin=4 $X=8470 $Y=3550 $D=12
M23 VDD 19 VDD VDD pch_svt_mac L=1.6e-08 nfin=4 $X=9370 $Y=3550 $D=12
M24 VDD 19 VDD VDD pch_svt_mac L=1.6e-08 nfin=4 $X=10270 $Y=3550 $D=12
M25 VDD 19 VDD VDD pch_svt_mac L=1.6e-08 nfin=4 $X=11170 $Y=3550 $D=12
M26 VDD 20 VDD VDD pch_svt_mac L=1.6e-08 nfin=4 $X=12070 $Y=3550 $D=12
M27 VDD 20 VDD VDD pch_svt_mac L=1.6e-08 nfin=4 $X=12970 $Y=3550 $D=12
X28 VSS 21 7 npode_svt_mac nfin=4 l=1.6e-08 $X=530 $Y=670 $D=20
X29 19 22 7 npode_svt_mac nfin=4 l=1.6e-08 $X=13860 $Y=670 $D=20
X30 20 21 VDD ppode_svt_mac nfin=4 l=1.6e-08 $X=530 $Y=3550 $D=25
X31 VDD 22 VDD ppode_svt_mac nfin=4 l=1.6e-08 $X=13860 $Y=3550 $D=25
.ENDS
***************************************
.SUBCKT ICV_14 1 2 3 4 5 6 7
** N=9 EP=7 IP=14 FDC=0
X0 VSS VDD BOUNDARY_NROW4BWP16P90LVT $T=0 0 0 0 $X=-1200 $Y=-720
X1 VSS VDD BOUNDARY_NROW4BWP16P90LVT $T=3600 0 0 0 $X=2400 $Y=-720
.ENDS
***************************************
.SUBCKT ICV_15 1 2 3 4 5 6 7
** N=9 EP=7 IP=14 FDC=0
X0 1 2 8 9 VSS VDD 7 ICV_14 $T=0 0 0 0 $X=-1200 $Y=-720
X1 8 9 3 4 VSS VDD 7 ICV_14 $T=7200 0 0 0 $X=6000 $Y=-720
.ENDS
***************************************
.SUBCKT ICV_16 1 2 3 4 5 6 7
** N=9 EP=7 IP=14 FDC=0
X0 1 2 8 9 VSS VDD 7 ICV_15 $T=0 0 0 0 $X=-1200 $Y=-720
X1 8 9 3 4 VSS VDD 7 ICV_15 $T=14400 0 0 0 $X=13200 $Y=-720
.ENDS
***************************************
.SUBCKT ICV_17 1 2 3 4 5 6 7
** N=9 EP=7 IP=14 FDC=0
X0 1 2 8 9 VSS VDD 7 ICV_16 $T=0 0 0 0 $X=-1200 $Y=-720
X1 8 9 3 4 VSS VDD 7 ICV_16 $T=28800 0 0 0 $X=27600 $Y=-720
.ENDS
***************************************
.SUBCKT DCAP64BWP16P90 VSS VDD 7
** N=70 EP=3 IP=0 FDC=128
M0 8 67 VSS 7 nch_svt_mac L=1.6e-08 nfin=4 $X=1270 $Y=670 $D=7
M1 9 67 8 7 nch_svt_mac L=1.6e-08 nfin=4 $X=2170 $Y=670 $D=7
M2 10 67 9 7 nch_svt_mac L=1.6e-08 nfin=4 $X=3070 $Y=670 $D=7
M3 11 67 10 7 nch_svt_mac L=1.6e-08 nfin=4 $X=3970 $Y=670 $D=7
M4 12 67 11 7 nch_svt_mac L=1.6e-08 nfin=4 $X=4870 $Y=670 $D=7
M5 13 67 12 7 nch_svt_mac L=1.6e-08 nfin=4 $X=5770 $Y=670 $D=7
M6 14 67 13 7 nch_svt_mac L=1.6e-08 nfin=4 $X=6670 $Y=670 $D=7
M7 15 67 14 7 nch_svt_mac L=1.6e-08 nfin=4 $X=7570 $Y=670 $D=7
M8 16 67 15 7 nch_svt_mac L=1.6e-08 nfin=4 $X=8470 $Y=670 $D=7
M9 17 67 16 7 nch_svt_mac L=1.6e-08 nfin=4 $X=9370 $Y=670 $D=7
M10 18 67 17 7 nch_svt_mac L=1.6e-08 nfin=4 $X=10270 $Y=670 $D=7
M11 19 67 18 7 nch_svt_mac L=1.6e-08 nfin=4 $X=11170 $Y=670 $D=7
M12 20 67 19 7 nch_svt_mac L=1.6e-08 nfin=4 $X=12070 $Y=670 $D=7
M13 21 67 20 7 nch_svt_mac L=1.6e-08 nfin=4 $X=12970 $Y=670 $D=7
M14 22 67 21 7 nch_svt_mac L=1.6e-08 nfin=4 $X=13870 $Y=670 $D=7
M15 23 67 22 7 nch_svt_mac L=1.6e-08 nfin=4 $X=14770 $Y=670 $D=7
M16 24 67 23 7 nch_svt_mac L=1.6e-08 nfin=4 $X=15670 $Y=670 $D=7
M17 25 67 24 7 nch_svt_mac L=1.6e-08 nfin=4 $X=16570 $Y=670 $D=7
M18 26 67 25 7 nch_svt_mac L=1.6e-08 nfin=4 $X=17470 $Y=670 $D=7
M19 27 67 26 7 nch_svt_mac L=1.6e-08 nfin=4 $X=18370 $Y=670 $D=7
M20 28 67 27 7 nch_svt_mac L=1.6e-08 nfin=4 $X=19270 $Y=670 $D=7
M21 29 67 28 7 nch_svt_mac L=1.6e-08 nfin=4 $X=20170 $Y=670 $D=7
M22 30 67 29 7 nch_svt_mac L=1.6e-08 nfin=4 $X=21070 $Y=670 $D=7
M23 31 67 30 7 nch_svt_mac L=1.6e-08 nfin=4 $X=21970 $Y=670 $D=7
M24 32 67 31 7 nch_svt_mac L=1.6e-08 nfin=4 $X=22870 $Y=670 $D=7
M25 33 67 32 7 nch_svt_mac L=1.6e-08 nfin=4 $X=23770 $Y=670 $D=7
M26 34 67 33 7 nch_svt_mac L=1.6e-08 nfin=4 $X=24670 $Y=670 $D=7
M27 35 67 34 7 nch_svt_mac L=1.6e-08 nfin=4 $X=25570 $Y=670 $D=7
M28 36 67 35 7 nch_svt_mac L=1.6e-08 nfin=4 $X=26470 $Y=670 $D=7
M29 37 67 36 7 nch_svt_mac L=1.6e-08 nfin=4 $X=27370 $Y=670 $D=7
M30 38 67 37 7 nch_svt_mac L=1.6e-08 nfin=4 $X=28270 $Y=670 $D=7
M31 39 67 38 7 nch_svt_mac L=1.6e-08 nfin=4 $X=29170 $Y=670 $D=7
M32 40 67 39 7 nch_svt_mac L=1.6e-08 nfin=4 $X=30070 $Y=670 $D=7
M33 41 67 40 7 nch_svt_mac L=1.6e-08 nfin=4 $X=30970 $Y=670 $D=7
M34 42 67 41 7 nch_svt_mac L=1.6e-08 nfin=4 $X=31870 $Y=670 $D=7
M35 43 67 42 7 nch_svt_mac L=1.6e-08 nfin=4 $X=32770 $Y=670 $D=7
M36 44 67 43 7 nch_svt_mac L=1.6e-08 nfin=4 $X=33670 $Y=670 $D=7
M37 45 67 44 7 nch_svt_mac L=1.6e-08 nfin=4 $X=34570 $Y=670 $D=7
M38 46 67 45 7 nch_svt_mac L=1.6e-08 nfin=4 $X=35470 $Y=670 $D=7
M39 47 67 46 7 nch_svt_mac L=1.6e-08 nfin=4 $X=36370 $Y=670 $D=7
M40 48 67 47 7 nch_svt_mac L=1.6e-08 nfin=4 $X=37270 $Y=670 $D=7
M41 49 67 48 7 nch_svt_mac L=1.6e-08 nfin=4 $X=38170 $Y=670 $D=7
M42 50 67 49 7 nch_svt_mac L=1.6e-08 nfin=4 $X=39070 $Y=670 $D=7
M43 51 67 50 7 nch_svt_mac L=1.6e-08 nfin=4 $X=39970 $Y=670 $D=7
M44 52 67 51 7 nch_svt_mac L=1.6e-08 nfin=4 $X=40870 $Y=670 $D=7
M45 53 67 52 7 nch_svt_mac L=1.6e-08 nfin=4 $X=41770 $Y=670 $D=7
M46 54 67 53 7 nch_svt_mac L=1.6e-08 nfin=4 $X=42670 $Y=670 $D=7
M47 55 67 54 7 nch_svt_mac L=1.6e-08 nfin=4 $X=43570 $Y=670 $D=7
M48 56 67 55 7 nch_svt_mac L=1.6e-08 nfin=4 $X=44470 $Y=670 $D=7
M49 57 67 56 7 nch_svt_mac L=1.6e-08 nfin=4 $X=45370 $Y=670 $D=7
M50 58 67 57 7 nch_svt_mac L=1.6e-08 nfin=4 $X=46270 $Y=670 $D=7
M51 59 67 58 7 nch_svt_mac L=1.6e-08 nfin=4 $X=47170 $Y=670 $D=7
M52 60 67 59 7 nch_svt_mac L=1.6e-08 nfin=4 $X=48070 $Y=670 $D=7
M53 61 67 60 7 nch_svt_mac L=1.6e-08 nfin=4 $X=48970 $Y=670 $D=7
M54 62 67 61 7 nch_svt_mac L=1.6e-08 nfin=4 $X=49870 $Y=670 $D=7
M55 63 67 62 7 nch_svt_mac L=1.6e-08 nfin=4 $X=50770 $Y=670 $D=7
M56 64 67 63 7 nch_svt_mac L=1.6e-08 nfin=4 $X=51670 $Y=670 $D=7
M57 65 67 64 7 nch_svt_mac L=1.6e-08 nfin=4 $X=52570 $Y=670 $D=7
M58 66 67 65 7 nch_svt_mac L=1.6e-08 nfin=4 $X=53470 $Y=670 $D=7
M59 67 67 66 7 nch_svt_mac L=1.6e-08 nfin=4 $X=54370 $Y=670 $D=7
M60 VSS 68 67 7 nch_svt_mac L=1.6e-08 nfin=4 $X=55270 $Y=670 $D=7
M61 67 68 VSS 7 nch_svt_mac L=1.6e-08 nfin=4 $X=56170 $Y=670 $D=7
M62 VDD 67 68 VDD pch_svt_mac L=1.6e-08 nfin=4 $X=1270 $Y=3550 $D=12
M63 VDD 67 VDD VDD pch_svt_mac L=1.6e-08 nfin=4 $X=2170 $Y=3550 $D=12
M64 VDD 67 VDD VDD pch_svt_mac L=1.6e-08 nfin=4 $X=3070 $Y=3550 $D=12
M65 VDD 67 VDD VDD pch_svt_mac L=1.6e-08 nfin=4 $X=3970 $Y=3550 $D=12
M66 VDD 67 VDD VDD pch_svt_mac L=1.6e-08 nfin=4 $X=4870 $Y=3550 $D=12
M67 VDD 67 VDD VDD pch_svt_mac L=1.6e-08 nfin=4 $X=5770 $Y=3550 $D=12
M68 VDD 67 VDD VDD pch_svt_mac L=1.6e-08 nfin=4 $X=6670 $Y=3550 $D=12
M69 VDD 67 VDD VDD pch_svt_mac L=1.6e-08 nfin=4 $X=7570 $Y=3550 $D=12
M70 VDD 67 VDD VDD pch_svt_mac L=1.6e-08 nfin=4 $X=8470 $Y=3550 $D=12
M71 VDD 67 VDD VDD pch_svt_mac L=1.6e-08 nfin=4 $X=9370 $Y=3550 $D=12
M72 VDD 67 VDD VDD pch_svt_mac L=1.6e-08 nfin=4 $X=10270 $Y=3550 $D=12
M73 VDD 67 VDD VDD pch_svt_mac L=1.6e-08 nfin=4 $X=11170 $Y=3550 $D=12
M74 VDD 67 VDD VDD pch_svt_mac L=1.6e-08 nfin=4 $X=12070 $Y=3550 $D=12
M75 VDD 67 VDD VDD pch_svt_mac L=1.6e-08 nfin=4 $X=12970 $Y=3550 $D=12
M76 VDD 67 VDD VDD pch_svt_mac L=1.6e-08 nfin=4 $X=13870 $Y=3550 $D=12
M77 VDD 67 VDD VDD pch_svt_mac L=1.6e-08 nfin=4 $X=14770 $Y=3550 $D=12
M78 VDD 67 VDD VDD pch_svt_mac L=1.6e-08 nfin=4 $X=15670 $Y=3550 $D=12
M79 VDD 67 VDD VDD pch_svt_mac L=1.6e-08 nfin=4 $X=16570 $Y=3550 $D=12
M80 VDD 67 VDD VDD pch_svt_mac L=1.6e-08 nfin=4 $X=17470 $Y=3550 $D=12
M81 VDD 67 VDD VDD pch_svt_mac L=1.6e-08 nfin=4 $X=18370 $Y=3550 $D=12
M82 VDD 67 VDD VDD pch_svt_mac L=1.6e-08 nfin=4 $X=19270 $Y=3550 $D=12
M83 VDD 67 VDD VDD pch_svt_mac L=1.6e-08 nfin=4 $X=20170 $Y=3550 $D=12
M84 VDD 67 VDD VDD pch_svt_mac L=1.6e-08 nfin=4 $X=21070 $Y=3550 $D=12
M85 VDD 67 VDD VDD pch_svt_mac L=1.6e-08 nfin=4 $X=21970 $Y=3550 $D=12
M86 VDD 67 VDD VDD pch_svt_mac L=1.6e-08 nfin=4 $X=22870 $Y=3550 $D=12
M87 VDD 67 VDD VDD pch_svt_mac L=1.6e-08 nfin=4 $X=23770 $Y=3550 $D=12
M88 VDD 67 VDD VDD pch_svt_mac L=1.6e-08 nfin=4 $X=24670 $Y=3550 $D=12
M89 VDD 67 VDD VDD pch_svt_mac L=1.6e-08 nfin=4 $X=25570 $Y=3550 $D=12
M90 VDD 67 VDD VDD pch_svt_mac L=1.6e-08 nfin=4 $X=26470 $Y=3550 $D=12
M91 VDD 67 VDD VDD pch_svt_mac L=1.6e-08 nfin=4 $X=27370 $Y=3550 $D=12
M92 VDD 67 VDD VDD pch_svt_mac L=1.6e-08 nfin=4 $X=28270 $Y=3550 $D=12
M93 VDD 67 VDD VDD pch_svt_mac L=1.6e-08 nfin=4 $X=29170 $Y=3550 $D=12
M94 VDD 67 VDD VDD pch_svt_mac L=1.6e-08 nfin=4 $X=30070 $Y=3550 $D=12
M95 VDD 67 VDD VDD pch_svt_mac L=1.6e-08 nfin=4 $X=30970 $Y=3550 $D=12
M96 VDD 67 VDD VDD pch_svt_mac L=1.6e-08 nfin=4 $X=31870 $Y=3550 $D=12
M97 VDD 67 VDD VDD pch_svt_mac L=1.6e-08 nfin=4 $X=32770 $Y=3550 $D=12
M98 VDD 67 VDD VDD pch_svt_mac L=1.6e-08 nfin=4 $X=33670 $Y=3550 $D=12
M99 VDD 67 VDD VDD pch_svt_mac L=1.6e-08 nfin=4 $X=34570 $Y=3550 $D=12
M100 VDD 67 VDD VDD pch_svt_mac L=1.6e-08 nfin=4 $X=35470 $Y=3550 $D=12
M101 VDD 67 VDD VDD pch_svt_mac L=1.6e-08 nfin=4 $X=36370 $Y=3550 $D=12
M102 VDD 67 VDD VDD pch_svt_mac L=1.6e-08 nfin=4 $X=37270 $Y=3550 $D=12
M103 VDD 67 VDD VDD pch_svt_mac L=1.6e-08 nfin=4 $X=38170 $Y=3550 $D=12
M104 VDD 67 VDD VDD pch_svt_mac L=1.6e-08 nfin=4 $X=39070 $Y=3550 $D=12
M105 VDD 67 VDD VDD pch_svt_mac L=1.6e-08 nfin=4 $X=39970 $Y=3550 $D=12
M106 VDD 67 VDD VDD pch_svt_mac L=1.6e-08 nfin=4 $X=40870 $Y=3550 $D=12
M107 VDD 67 VDD VDD pch_svt_mac L=1.6e-08 nfin=4 $X=41770 $Y=3550 $D=12
M108 VDD 67 VDD VDD pch_svt_mac L=1.6e-08 nfin=4 $X=42670 $Y=3550 $D=12
M109 VDD 67 VDD VDD pch_svt_mac L=1.6e-08 nfin=4 $X=43570 $Y=3550 $D=12
M110 VDD 67 VDD VDD pch_svt_mac L=1.6e-08 nfin=4 $X=44470 $Y=3550 $D=12
M111 VDD 67 VDD VDD pch_svt_mac L=1.6e-08 nfin=4 $X=45370 $Y=3550 $D=12
M112 VDD 67 VDD VDD pch_svt_mac L=1.6e-08 nfin=4 $X=46270 $Y=3550 $D=12
M113 VDD 67 VDD VDD pch_svt_mac L=1.6e-08 nfin=4 $X=47170 $Y=3550 $D=12
M114 VDD 67 VDD VDD pch_svt_mac L=1.6e-08 nfin=4 $X=48070 $Y=3550 $D=12
M115 VDD 67 VDD VDD pch_svt_mac L=1.6e-08 nfin=4 $X=48970 $Y=3550 $D=12
M116 VDD 67 VDD VDD pch_svt_mac L=1.6e-08 nfin=4 $X=49870 $Y=3550 $D=12
M117 VDD 67 VDD VDD pch_svt_mac L=1.6e-08 nfin=4 $X=50770 $Y=3550 $D=12
M118 VDD 67 VDD VDD pch_svt_mac L=1.6e-08 nfin=4 $X=51670 $Y=3550 $D=12
M119 VDD 67 VDD VDD pch_svt_mac L=1.6e-08 nfin=4 $X=52570 $Y=3550 $D=12
M120 VDD 67 VDD VDD pch_svt_mac L=1.6e-08 nfin=4 $X=53470 $Y=3550 $D=12
M121 VDD 67 VDD VDD pch_svt_mac L=1.6e-08 nfin=4 $X=54370 $Y=3550 $D=12
M122 VDD 68 VDD VDD pch_svt_mac L=1.6e-08 nfin=4 $X=55270 $Y=3550 $D=12
M123 VDD 68 VDD VDD pch_svt_mac L=1.6e-08 nfin=4 $X=56170 $Y=3550 $D=12
X124 VSS 69 7 npode_svt_mac nfin=4 l=1.6e-08 $X=530 $Y=670 $D=20
X125 67 70 7 npode_svt_mac nfin=4 l=1.6e-08 $X=57060 $Y=670 $D=20
X126 68 69 VDD ppode_svt_mac nfin=4 l=1.6e-08 $X=530 $Y=3550 $D=25
X127 VDD 70 VDD ppode_svt_mac nfin=4 l=1.6e-08 $X=57060 $Y=3550 $D=25
.ENDS
***************************************
.SUBCKT ICV_18 1 2 3 4 5 6 7
*.CALIBRE ICV_CELL 9
** N=9 EP=7 IP=14 FDC=256
X0 VSS VDD 7 DCAP64BWP16P90 $T=0 0 0 0 $X=-1200 $Y=-720
X1 VSS VDD 7 DCAP64BWP16P90 $T=57600 0 0 0 $X=56400 $Y=-720
.ENDS
***************************************
.SUBCKT ICV_19 1 2 3 4 5 6 7
** N=9 EP=7 IP=14 FDC=0
X0 1 2 8 9 VSS VDD 7 ICV_17 $T=0 0 0 0 $X=-1200 $Y=-720
X1 8 9 3 4 VSS VDD 7 ICV_17 $T=57600 0 0 0 $X=56400 $Y=-720
.ENDS
***************************************
.SUBCKT ICV_20 1 2 3 4 5 6 7
** N=9 EP=7 IP=14 FDC=0
X0 1 2 8 9 VSS VDD 7 ICV_19 $T=0 0 0 0 $X=-1200 $Y=-720
X1 8 9 3 4 VSS VDD 7 ICV_19 $T=115200 0 0 0 $X=114000 $Y=-720
.ENDS
***************************************
.SUBCKT ICV_21 1 2 3 4 5 6 7
*.CALIBRE ICV_CELL 9
** N=9 EP=7 IP=14 FDC=512
X0 1 2 VSS VDD 8 9 7 ICV_18 $T=0 0 0 0 $X=-1200 $Y=-720
X1 8 9 VSS VDD 5 6 7 ICV_18 $T=115200 0 0 0 $X=114000 $Y=-720
.ENDS
***************************************
.SUBCKT DCAP32BWP16P90 VSS VDD 7
** N=38 EP=3 IP=0 FDC=64
M0 8 35 VSS 7 nch_svt_mac L=1.6e-08 nfin=4 $X=1270 $Y=670 $D=7
M1 9 35 8 7 nch_svt_mac L=1.6e-08 nfin=4 $X=2170 $Y=670 $D=7
M2 10 35 9 7 nch_svt_mac L=1.6e-08 nfin=4 $X=3070 $Y=670 $D=7
M3 11 35 10 7 nch_svt_mac L=1.6e-08 nfin=4 $X=3970 $Y=670 $D=7
M4 12 35 11 7 nch_svt_mac L=1.6e-08 nfin=4 $X=4870 $Y=670 $D=7
M5 13 35 12 7 nch_svt_mac L=1.6e-08 nfin=4 $X=5770 $Y=670 $D=7
M6 14 35 13 7 nch_svt_mac L=1.6e-08 nfin=4 $X=6670 $Y=670 $D=7
M7 15 35 14 7 nch_svt_mac L=1.6e-08 nfin=4 $X=7570 $Y=670 $D=7
M8 16 35 15 7 nch_svt_mac L=1.6e-08 nfin=4 $X=8470 $Y=670 $D=7
M9 17 35 16 7 nch_svt_mac L=1.6e-08 nfin=4 $X=9370 $Y=670 $D=7
M10 18 35 17 7 nch_svt_mac L=1.6e-08 nfin=4 $X=10270 $Y=670 $D=7
M11 19 35 18 7 nch_svt_mac L=1.6e-08 nfin=4 $X=11170 $Y=670 $D=7
M12 20 35 19 7 nch_svt_mac L=1.6e-08 nfin=4 $X=12070 $Y=670 $D=7
M13 21 35 20 7 nch_svt_mac L=1.6e-08 nfin=4 $X=12970 $Y=670 $D=7
M14 22 35 21 7 nch_svt_mac L=1.6e-08 nfin=4 $X=13870 $Y=670 $D=7
M15 23 35 22 7 nch_svt_mac L=1.6e-08 nfin=4 $X=14770 $Y=670 $D=7
M16 24 35 23 7 nch_svt_mac L=1.6e-08 nfin=4 $X=15670 $Y=670 $D=7
M17 25 35 24 7 nch_svt_mac L=1.6e-08 nfin=4 $X=16570 $Y=670 $D=7
M18 26 35 25 7 nch_svt_mac L=1.6e-08 nfin=4 $X=17470 $Y=670 $D=7
M19 27 35 26 7 nch_svt_mac L=1.6e-08 nfin=4 $X=18370 $Y=670 $D=7
M20 28 35 27 7 nch_svt_mac L=1.6e-08 nfin=4 $X=19270 $Y=670 $D=7
M21 29 35 28 7 nch_svt_mac L=1.6e-08 nfin=4 $X=20170 $Y=670 $D=7
M22 30 35 29 7 nch_svt_mac L=1.6e-08 nfin=4 $X=21070 $Y=670 $D=7
M23 31 35 30 7 nch_svt_mac L=1.6e-08 nfin=4 $X=21970 $Y=670 $D=7
M24 32 35 31 7 nch_svt_mac L=1.6e-08 nfin=4 $X=22870 $Y=670 $D=7
M25 33 35 32 7 nch_svt_mac L=1.6e-08 nfin=4 $X=23770 $Y=670 $D=7
M26 34 35 33 7 nch_svt_mac L=1.6e-08 nfin=4 $X=24670 $Y=670 $D=7
M27 35 35 34 7 nch_svt_mac L=1.6e-08 nfin=4 $X=25570 $Y=670 $D=7
M28 VSS 36 35 7 nch_svt_mac L=1.6e-08 nfin=4 $X=26470 $Y=670 $D=7
M29 35 36 VSS 7 nch_svt_mac L=1.6e-08 nfin=4 $X=27370 $Y=670 $D=7
M30 VDD 35 36 VDD pch_svt_mac L=1.6e-08 nfin=4 $X=1270 $Y=3550 $D=12
M31 VDD 35 VDD VDD pch_svt_mac L=1.6e-08 nfin=4 $X=2170 $Y=3550 $D=12
M32 VDD 35 VDD VDD pch_svt_mac L=1.6e-08 nfin=4 $X=3070 $Y=3550 $D=12
M33 VDD 35 VDD VDD pch_svt_mac L=1.6e-08 nfin=4 $X=3970 $Y=3550 $D=12
M34 VDD 35 VDD VDD pch_svt_mac L=1.6e-08 nfin=4 $X=4870 $Y=3550 $D=12
M35 VDD 35 VDD VDD pch_svt_mac L=1.6e-08 nfin=4 $X=5770 $Y=3550 $D=12
M36 VDD 35 VDD VDD pch_svt_mac L=1.6e-08 nfin=4 $X=6670 $Y=3550 $D=12
M37 VDD 35 VDD VDD pch_svt_mac L=1.6e-08 nfin=4 $X=7570 $Y=3550 $D=12
M38 VDD 35 VDD VDD pch_svt_mac L=1.6e-08 nfin=4 $X=8470 $Y=3550 $D=12
M39 VDD 35 VDD VDD pch_svt_mac L=1.6e-08 nfin=4 $X=9370 $Y=3550 $D=12
M40 VDD 35 VDD VDD pch_svt_mac L=1.6e-08 nfin=4 $X=10270 $Y=3550 $D=12
M41 VDD 35 VDD VDD pch_svt_mac L=1.6e-08 nfin=4 $X=11170 $Y=3550 $D=12
M42 VDD 35 VDD VDD pch_svt_mac L=1.6e-08 nfin=4 $X=12070 $Y=3550 $D=12
M43 VDD 35 VDD VDD pch_svt_mac L=1.6e-08 nfin=4 $X=12970 $Y=3550 $D=12
M44 VDD 35 VDD VDD pch_svt_mac L=1.6e-08 nfin=4 $X=13870 $Y=3550 $D=12
M45 VDD 35 VDD VDD pch_svt_mac L=1.6e-08 nfin=4 $X=14770 $Y=3550 $D=12
M46 VDD 35 VDD VDD pch_svt_mac L=1.6e-08 nfin=4 $X=15670 $Y=3550 $D=12
M47 VDD 35 VDD VDD pch_svt_mac L=1.6e-08 nfin=4 $X=16570 $Y=3550 $D=12
M48 VDD 35 VDD VDD pch_svt_mac L=1.6e-08 nfin=4 $X=17470 $Y=3550 $D=12
M49 VDD 35 VDD VDD pch_svt_mac L=1.6e-08 nfin=4 $X=18370 $Y=3550 $D=12
M50 VDD 35 VDD VDD pch_svt_mac L=1.6e-08 nfin=4 $X=19270 $Y=3550 $D=12
M51 VDD 35 VDD VDD pch_svt_mac L=1.6e-08 nfin=4 $X=20170 $Y=3550 $D=12
M52 VDD 35 VDD VDD pch_svt_mac L=1.6e-08 nfin=4 $X=21070 $Y=3550 $D=12
M53 VDD 35 VDD VDD pch_svt_mac L=1.6e-08 nfin=4 $X=21970 $Y=3550 $D=12
M54 VDD 35 VDD VDD pch_svt_mac L=1.6e-08 nfin=4 $X=22870 $Y=3550 $D=12
M55 VDD 35 VDD VDD pch_svt_mac L=1.6e-08 nfin=4 $X=23770 $Y=3550 $D=12
M56 VDD 35 VDD VDD pch_svt_mac L=1.6e-08 nfin=4 $X=24670 $Y=3550 $D=12
M57 VDD 35 VDD VDD pch_svt_mac L=1.6e-08 nfin=4 $X=25570 $Y=3550 $D=12
M58 VDD 36 VDD VDD pch_svt_mac L=1.6e-08 nfin=4 $X=26470 $Y=3550 $D=12
M59 VDD 36 VDD VDD pch_svt_mac L=1.6e-08 nfin=4 $X=27370 $Y=3550 $D=12
X60 VSS 37 7 npode_svt_mac nfin=4 l=1.6e-08 $X=530 $Y=670 $D=20
X61 35 38 7 npode_svt_mac nfin=4 l=1.6e-08 $X=28260 $Y=670 $D=20
X62 36 37 VDD ppode_svt_mac nfin=4 l=1.6e-08 $X=530 $Y=3550 $D=25
X63 VDD 38 VDD ppode_svt_mac nfin=4 l=1.6e-08 $X=28260 $Y=3550 $D=25
.ENDS
***************************************
.SUBCKT ICV_22 1 2 3 4 5 6 7
*.CALIBRE ICV_CELL 9
** N=9 EP=7 IP=14 FDC=192
X0 VSS VDD 7 DCAP64BWP16P90 $T=0 0 0 0 $X=-1200 $Y=-720
X1 VSS VDD 7 DCAP32BWP16P90 $T=57600 0 0 0 $X=56400 $Y=-720
.ENDS
***************************************
.SUBCKT ICV_23 1 2 3 4 5 6 7
*.CALIBRE ICV_CELL 9
** N=9 EP=7 IP=14 FDC=704
X0 2 3 VSS VDD 8 9 7 ICV_21 $T=0 0 0 0 $X=-1200 $Y=-720
X1 8 9 VSS VDD 5 6 7 ICV_22 $T=230400 0 0 0 $X=229200 $Y=-720
.ENDS
***************************************
.SUBCKT ICV_24 1 2 3 4 5 6 7
*.CALIBRE ICV_CELL 9
** N=9 EP=7 IP=14 FDC=8
X0 VSS VDD FILL2BWP16P90 $T=3600 0 0 0 $X=2400 $Y=-720
X1 VSS VDD 7 DCAP4BWP16P90 $T=0 0 0 0 $X=-1200 $Y=-720
.ENDS
***************************************
.SUBCKT ICV_25 1 2 3 4 5
*.CALIBRE ICV_CELL 9
** N=7 EP=5 IP=12 FDC=8
X0 VSS VDD BOUNDARY_RIGHTBWP16P90LVT $T=5400 0 0 0 $X=4200 $Y=-720
X1 6 7 1 2 VSS VDD 5 ICV_24 $T=0 0 0 0 $X=-1200 $Y=-720
.ENDS
***************************************
.SUBCKT ICV_26 1 2 3 4 5
*.CALIBRE ICV_CELL 9
** N=7 EP=5 IP=12 FDC=712
X0 VDD 2 3 VSS 6 7 5 ICV_23 $T=0 0 0 0 $X=-1200 $Y=-720
X1 6 7 VSS VDD 5 ICV_25 $T=316800 0 0 0 $X=315600 $Y=-720
.ENDS
***************************************
.SUBCKT BOUNDARY_NTAPBWP16P90LVT_VPP_VSS VPP VSS VDD
** N=29 EP=3 IP=0 FDC=0
.ENDS
***************************************
.SUBCKT TAPCELLBWP16P90LVT_VPP_VSS VPP VSS VDD
** N=28 EP=3 IP=0 FDC=0
.ENDS
***************************************
.SUBCKT FILL1BWP16P90 VSS VDD
** N=8 EP=2 IP=0 FDC=0
.ENDS
***************************************
.SUBCKT ICV_27 1 2 3 4 5 6 7
*.CALIBRE ICV_CELL 9
** N=9 EP=7 IP=14 FDC=48
X0 VSS VDD 7 DCAP8BWP16P90 $T=14400 0 0 0 $X=13200 $Y=-720
X1 VSS VDD 7 DCAP16BWP16P90 $T=0 0 0 0 $X=-1200 $Y=-720
.ENDS
***************************************
.SUBCKT ICV_28 1 2 3 4 5 6 7
*.CALIBRE ICV_CELL 9
** N=9 EP=7 IP=15 FDC=48
X0 1 VSS VDD TAPCELLBWP16P90LVT_VPP_VSS $T=21600 0 0 0 $X=20400 $Y=-720
X1 VSS VDD 8 9 5 6 7 ICV_27 $T=0 0 0 0 $X=-1200 $Y=-720
.ENDS
***************************************
.SUBCKT ICV_29 1 2 3 4 5 6 7
*.CALIBRE ICV_CELL 9
** N=9 EP=7 IP=14 FDC=1024
X0 1 2 VSS VDD 8 9 7 ICV_21 $T=0 0 0 0 $X=-1200 $Y=-720
X1 8 9 VSS VDD 5 6 7 ICV_21 $T=230400 0 0 0 $X=229200 $Y=-720
.ENDS
***************************************
.SUBCKT ICV_30 1 2 3 4 5 6 7
*.CALIBRE ICV_CELL 9
** N=9 EP=7 IP=14 FDC=2048
X0 2 3 VSS VDD 8 9 7 ICV_29 $T=0 0 0 0 $X=-1200 $Y=-720
X1 8 9 VSS VDD 5 6 7 ICV_29 $T=460800 0 0 0 $X=459600 $Y=-720
.ENDS
***************************************
.SUBCKT NR4D1BWP20P90 VSS VDD A4 A3 A2 A1 ZN
** N=28 EP=7 IP=0 FDC=0
.ENDS
***************************************
.SUBCKT DFCNQD1BWP16P90 VSS VDD D CP CDN Q
** N=73 EP=6 IP=0 FDC=0
.ENDS
***************************************
.SUBCKT ICV_31 1 2 3 4 5 6 7 8 9 10 11
** N=13 EP=11 IP=18 FDC=0
X0 VSS VDD FILL3BWP16P90 $T=0 0 0 0 $X=-1200 $Y=-720
X1 VSS VDD 8 9 10 7 DFCNQD1BWP16P90 $T=2700 0 0 0 $X=1500 $Y=-720
.ENDS
***************************************
.SUBCKT FA1D1BWP20P90 VSS VDD S A B CI CO
** N=65 EP=7 IP=0 FDC=0
.ENDS
***************************************
.SUBCKT ICV_32 1 2 3 4 5 6 7 8 9 10 11 12
*.CALIBRE ICV_CELL 9
** N=14 EP=12 IP=19 FDC=8
X0 VSS VDD 12 DCAP4BWP16P90 $T=0 0 1 180 $X=-4800 $Y=-720
X1 VSS VDD 7 9 10 11 8 FA1D1BWP20P90 $T=0 0 0 0 $X=-1200 $Y=-720
.ENDS
***************************************
.SUBCKT ICV_33 1 2 3 4 5 6 7
*.CALIBRE ICV_CELL 9
** N=9 EP=7 IP=14 FDC=8
X0 VSS VDD 7 DCAP4BWP16P90 $T=0 0 0 0 $X=-1200 $Y=-720
X1 VSS VDD FILL1BWP16P90 $T=3600 0 0 0 $X=2400 $Y=-720
.ENDS
***************************************
.SUBCKT ICV_34 1 2 3 4 5 6 7
*.CALIBRE ICV_CELL 9
** N=9 EP=7 IP=14 FDC=384
X0 VSS VDD 7 DCAP64BWP16P90 $T=115200 0 0 0 $X=114000 $Y=-720
X1 5 6 VSS VDD 8 9 7 ICV_18 $T=0 0 0 0 $X=-1200 $Y=-720
.ENDS
***************************************
.SUBCKT ICV_35 1 2 3 4 5
*.CALIBRE ICV_CELL 9
** N=11 EP=5 IP=26 FDC=2968
X0 VDD VSS 6 7 5 ICV_13 $T=1324800 0 0 0 $X=1323600 $Y=-720
X1 8 9 VSS VDD 10 11 5 ICV_21 $T=921600 0 0 0 $X=920400 $Y=-720
X2 VDD 3 4 VSS 8 9 5 ICV_30 $T=0 0 0 0 $X=-1200 $Y=-720
X3 VDD VSS 6 7 10 11 5 ICV_34 $T=1152000 0 0 0 $X=1150800 $Y=-720
.ENDS
***************************************
.SUBCKT ICV_36 1 2 3 4 5 6 7 8
*.CALIBRE ICV_CELL 9
** N=14 EP=8 IP=31 FDC=5904
X0 VSS VDD 8 DCAP64BWP16P90 $T=928800 11520 1 0 $X=927600 $Y=4560
X1 VDD 13 14 VSS 8 ICV_26 $T=1015200 11520 1 0 $X=1014000 $Y=4560
X2 VDD VSS 13 14 11 12 8 ICV_28 $T=986400 11520 1 0 $X=985200 $Y=4560
X3 VDD 3 4 VSS 9 10 8 ICV_30 $T=7200 11520 1 0 $X=6000 $Y=4560
X4 VDD VSS 5 6 8 ICV_35 $T=0 0 0 0 $X=-1200 $Y=-720
.ENDS
***************************************
.SUBCKT ICV_37 1 2 3 4 5 6 7 8 9 10 11 12 13 14
*.CALIBRE ICV_CELL 9
** N=14 EP=14 IP=16 FDC=11808
X0 VDD VSS 6 5 1 2 VSS 14 ICV_36 $T=0 0 0 0 $X=-1200 $Y=-720
X1 VDD VSS 12 11 8 9 VSS 14 ICV_36 $T=0 11520 0 0 $X=-1200 $Y=10800
.ENDS
***************************************
.SUBCKT ICV_38 1 2 3 4 5 6 7 8 9 10 11 12 13 14 15 16 17 18 19 20
+ 21 22 23 24 25 26
*.CALIBRE ICV_CELL 9
** N=26 EP=26 IP=28 FDC=23616
X0 1 2 VSS VDD 9 10 VSS 3 4 VDD 11 12 VSS 26 ICV_37 $T=0 0 0 0 $X=-1200 $Y=-720
X1 14 15 VSS VDD 21 22 VSS 16 17 VDD 23 24 VSS 26 ICV_37 $T=0 23040 0 0 $X=-1200 $Y=22320
.ENDS
***************************************
.SUBCKT ICV_39 1 2 3 4 5 6 7 8 9 10 11 12
** N=14 EP=12 IP=19 FDC=0
X0 VSS VDD FILL3BWP16P90 $T=0 0 0 0 $X=-1200 $Y=-720
X1 VSS VDD 7 9 10 11 8 FA1D1BWP20P90 $T=2700 0 0 0 $X=1500 $Y=-720
.ENDS
***************************************
.SUBCKT ICV_40 1 2 3 4 5 6 7 8 9 10 11
*.CALIBRE ICV_CELL 9
** N=13 EP=11 IP=18 FDC=16
X0 VSS VDD 11 DCAP8BWP16P90 $T=19800 0 0 0 $X=18600 $Y=-720
X1 VSS VDD 8 9 10 7 DFCNQD1BWP16P90 $T=0 0 0 0 $X=-1200 $Y=-720
.ENDS
***************************************
.SUBCKT DFCNQD1BWP20P90 VSS VDD D CP CDN Q
** N=73 EP=6 IP=0 FDC=0
.ENDS
***************************************
.SUBCKT ICV_41 1 2 3 4 5 6 7 8 9 10 11
*.CALIBRE ICV_CELL 9
** N=13 EP=11 IP=18 FDC=8
X0 VSS VDD 11 DCAP4BWP16P90 $T=19800 0 0 0 $X=18600 $Y=-720
X1 VSS VDD 8 9 10 7 DFCNQD1BWP16P90 $T=0 0 0 0 $X=-1200 $Y=-720
.ENDS
***************************************
.SUBCKT ICV_42 1 2 3 4 5 6 7 8 9 10 11
** N=13 EP=11 IP=18 FDC=0
X0 VSS VDD FILL2BWP16P90 $T=0 0 0 0 $X=-1200 $Y=-720
X1 VSS VDD 8 9 10 7 DFCNQD1BWP16P90 $T=1800 0 0 0 $X=600 $Y=-720
.ENDS
***************************************
.SUBCKT XOR2D1BWP20P90 VSS VDD A1 A2 Z
** N=39 EP=5 IP=0 FDC=0
.ENDS
***************************************
.SUBCKT ICV_43 1 2 3 4 5 6 7 8 9 10
** N=12 EP=10 IP=17 FDC=0
X0 VSS VDD FILL3BWP16P90 $T=0 0 0 0 $X=-1200 $Y=-720
X1 VSS VDD 7 8 9 XOR2D1BWP20P90 $T=2700 0 0 0 $X=1500 $Y=-720
.ENDS
***************************************
.SUBCKT ICV_44 1 2 3 4 5 6 7 8 9 10 11 12
** N=14 EP=12 IP=19 FDC=0
X0 VSS VDD FILL2BWP16P90 $T=0 0 0 0 $X=-1200 $Y=-720
X1 VSS VDD 7 9 10 11 8 FA1D1BWP20P90 $T=19800 0 1 180 $X=600 $Y=-720
.ENDS
***************************************
.SUBCKT ICV_45 1 2 3 4 5 6 7
*.CALIBRE ICV_CELL 9
** N=11 EP=7 IP=22 FDC=200
X0 VSS VDD 7 DCAP4BWP16P90 $T=86400 0 0 0 $X=85200 $Y=-720